* NGSPICE file created from tiny_user_project.ext - technology: gf180mcuC

* Black-box entry subcircuit for gf180mcu_fd_sc_mcu7t5v0__fill_1 abstract view
.subckt gf180mcu_fd_sc_mcu7t5v0__fill_1 VDD VSS
.ends

* Black-box entry subcircuit for gf180mcu_fd_sc_mcu7t5v0__fill_2 abstract view
.subckt gf180mcu_fd_sc_mcu7t5v0__fill_2 VDD VSS
.ends

* Black-box entry subcircuit for gf180mcu_fd_sc_mcu7t5v0__filltie abstract view
.subckt gf180mcu_fd_sc_mcu7t5v0__filltie VDD VSS
.ends

* Black-box entry subcircuit for gf180mcu_fd_sc_mcu7t5v0__fillcap_64 abstract view
.subckt gf180mcu_fd_sc_mcu7t5v0__fillcap_64 VDD VSS
.ends

* Black-box entry subcircuit for gf180mcu_fd_sc_mcu7t5v0__nand2_1 abstract view
.subckt gf180mcu_fd_sc_mcu7t5v0__nand2_1 A1 A2 ZN VDD VSS
.ends

* Black-box entry subcircuit for gf180mcu_fd_sc_mcu7t5v0__dffq_1 abstract view
.subckt gf180mcu_fd_sc_mcu7t5v0__dffq_1 D CLK Q VDD VSS
.ends

* Black-box entry subcircuit for gf180mcu_fd_sc_mcu7t5v0__fillcap_4 abstract view
.subckt gf180mcu_fd_sc_mcu7t5v0__fillcap_4 VDD VSS
.ends

* Black-box entry subcircuit for gf180mcu_fd_sc_mcu7t5v0__antenna abstract view
.subckt gf180mcu_fd_sc_mcu7t5v0__antenna I VDD VSS
.ends

* Black-box entry subcircuit for gf180mcu_fd_sc_mcu7t5v0__fillcap_16 abstract view
.subckt gf180mcu_fd_sc_mcu7t5v0__fillcap_16 VDD VSS
.ends

* Black-box entry subcircuit for gf180mcu_fd_sc_mcu7t5v0__nor2_1 abstract view
.subckt gf180mcu_fd_sc_mcu7t5v0__nor2_1 A1 A2 ZN VDD VSS
.ends

* Black-box entry subcircuit for gf180mcu_fd_sc_mcu7t5v0__nor4_1 abstract view
.subckt gf180mcu_fd_sc_mcu7t5v0__nor4_1 A1 A2 A3 A4 ZN VDD VSS
.ends

* Black-box entry subcircuit for gf180mcu_fd_sc_mcu7t5v0__fillcap_8 abstract view
.subckt gf180mcu_fd_sc_mcu7t5v0__fillcap_8 VDD VSS
.ends

* Black-box entry subcircuit for gf180mcu_fd_sc_mcu7t5v0__aoi221_2 abstract view
.subckt gf180mcu_fd_sc_mcu7t5v0__aoi221_2 A1 A2 B1 B2 C ZN VDD VSS
.ends

* Black-box entry subcircuit for gf180mcu_fd_sc_mcu7t5v0__clkinv_1 abstract view
.subckt gf180mcu_fd_sc_mcu7t5v0__clkinv_1 I ZN VDD VSS
.ends

* Black-box entry subcircuit for gf180mcu_fd_sc_mcu7t5v0__fillcap_32 abstract view
.subckt gf180mcu_fd_sc_mcu7t5v0__fillcap_32 VDD VSS
.ends

* Black-box entry subcircuit for gf180mcu_fd_sc_mcu7t5v0__clkbuf_4 abstract view
.subckt gf180mcu_fd_sc_mcu7t5v0__clkbuf_4 I Z VDD VSS
.ends

* Black-box entry subcircuit for gf180mcu_fd_sc_mcu7t5v0__aoi22_1 abstract view
.subckt gf180mcu_fd_sc_mcu7t5v0__aoi22_1 A1 A2 B1 B2 ZN VDD VSS
.ends

* Black-box entry subcircuit for gf180mcu_fd_sc_mcu7t5v0__and3_1 abstract view
.subckt gf180mcu_fd_sc_mcu7t5v0__and3_1 A1 A2 A3 Z VDD VSS
.ends

* Black-box entry subcircuit for gf180mcu_fd_sc_mcu7t5v0__or2_1 abstract view
.subckt gf180mcu_fd_sc_mcu7t5v0__or2_1 A1 A2 Z VDD VSS
.ends

* Black-box entry subcircuit for gf180mcu_fd_sc_mcu7t5v0__oai21_1 abstract view
.subckt gf180mcu_fd_sc_mcu7t5v0__oai21_1 A1 A2 B ZN VDD VSS
.ends

* Black-box entry subcircuit for gf180mcu_fd_sc_mcu7t5v0__clkbuf_1 abstract view
.subckt gf180mcu_fd_sc_mcu7t5v0__clkbuf_1 I Z VDD VSS
.ends

* Black-box entry subcircuit for gf180mcu_fd_sc_mcu7t5v0__aoi211_2 abstract view
.subckt gf180mcu_fd_sc_mcu7t5v0__aoi211_2 A1 A2 B C ZN VDD VSS
.ends

* Black-box entry subcircuit for gf180mcu_fd_sc_mcu7t5v0__nand3_1 abstract view
.subckt gf180mcu_fd_sc_mcu7t5v0__nand3_1 A1 A2 A3 ZN VDD VSS
.ends

* Black-box entry subcircuit for gf180mcu_fd_sc_mcu7t5v0__buf_1 abstract view
.subckt gf180mcu_fd_sc_mcu7t5v0__buf_1 I Z VDD VSS
.ends

* Black-box entry subcircuit for gf180mcu_fd_sc_mcu7t5v0__aoi21_1 abstract view
.subckt gf180mcu_fd_sc_mcu7t5v0__aoi21_1 A1 A2 B ZN VDD VSS
.ends

* Black-box entry subcircuit for gf180mcu_fd_sc_mcu7t5v0__oai32_1 abstract view
.subckt gf180mcu_fd_sc_mcu7t5v0__oai32_1 A1 A2 A3 B1 B2 ZN VDD VSS
.ends

* Black-box entry subcircuit for gf180mcu_fd_sc_mcu7t5v0__xnor2_1 abstract view
.subckt gf180mcu_fd_sc_mcu7t5v0__xnor2_1 A1 A2 ZN VDD VSS
.ends

* Black-box entry subcircuit for gf180mcu_fd_sc_mcu7t5v0__endcap abstract view
.subckt gf180mcu_fd_sc_mcu7t5v0__endcap VDD VSS
.ends

* Black-box entry subcircuit for gf180mcu_fd_sc_mcu7t5v0__oai211_2 abstract view
.subckt gf180mcu_fd_sc_mcu7t5v0__oai211_2 A1 A2 B C ZN VDD VSS
.ends

* Black-box entry subcircuit for gf180mcu_fd_sc_mcu7t5v0__oai221_1 abstract view
.subckt gf180mcu_fd_sc_mcu7t5v0__oai221_1 A1 A2 B1 B2 C ZN VDD VSS
.ends

* Black-box entry subcircuit for gf180mcu_fd_sc_mcu7t5v0__nor3_1 abstract view
.subckt gf180mcu_fd_sc_mcu7t5v0__nor3_1 A1 A2 A3 ZN VDD VSS
.ends

* Black-box entry subcircuit for gf180mcu_fd_sc_mcu7t5v0__oai211_1 abstract view
.subckt gf180mcu_fd_sc_mcu7t5v0__oai211_1 A1 A2 B C ZN VDD VSS
.ends

* Black-box entry subcircuit for gf180mcu_fd_sc_mcu7t5v0__nor2_2 abstract view
.subckt gf180mcu_fd_sc_mcu7t5v0__nor2_2 A1 A2 ZN VDD VSS
.ends

* Black-box entry subcircuit for gf180mcu_fd_sc_mcu7t5v0__nand4_2 abstract view
.subckt gf180mcu_fd_sc_mcu7t5v0__nand4_2 A1 A2 A3 A4 ZN VDD VSS
.ends

* Black-box entry subcircuit for gf180mcu_fd_sc_mcu7t5v0__mux2_2 abstract view
.subckt gf180mcu_fd_sc_mcu7t5v0__mux2_2 I0 I1 S Z VDD VSS
.ends

* Black-box entry subcircuit for gf180mcu_fd_sc_mcu7t5v0__or4_1 abstract view
.subckt gf180mcu_fd_sc_mcu7t5v0__or4_1 A1 A2 A3 A4 Z VDD VSS
.ends

* Black-box entry subcircuit for gf180mcu_fd_sc_mcu7t5v0__and4_1 abstract view
.subckt gf180mcu_fd_sc_mcu7t5v0__and4_1 A1 A2 A3 A4 Z VDD VSS
.ends

* Black-box entry subcircuit for gf180mcu_fd_sc_mcu7t5v0__aoi221_1 abstract view
.subckt gf180mcu_fd_sc_mcu7t5v0__aoi221_1 A1 A2 B1 B2 C ZN VDD VSS
.ends

* Black-box entry subcircuit for gf180mcu_fd_sc_mcu7t5v0__clkbuf_8 abstract view
.subckt gf180mcu_fd_sc_mcu7t5v0__clkbuf_8 I Z VDD VSS
.ends

* Black-box entry subcircuit for gf180mcu_fd_sc_mcu7t5v0__or3_1 abstract view
.subckt gf180mcu_fd_sc_mcu7t5v0__or3_1 A1 A2 A3 Z VDD VSS
.ends

* Black-box entry subcircuit for gf180mcu_fd_sc_mcu7t5v0__tiel abstract view
.subckt gf180mcu_fd_sc_mcu7t5v0__tiel ZN VDD VSS
.ends

* Black-box entry subcircuit for gf180mcu_fd_sc_mcu7t5v0__aoi211_1 abstract view
.subckt gf180mcu_fd_sc_mcu7t5v0__aoi211_1 A1 A2 B C ZN VDD VSS
.ends

* Black-box entry subcircuit for gf180mcu_fd_sc_mcu7t5v0__oai31_1 abstract view
.subckt gf180mcu_fd_sc_mcu7t5v0__oai31_1 A1 A2 A3 B ZN VDD VSS
.ends

* Black-box entry subcircuit for gf180mcu_fd_sc_mcu7t5v0__and2_1 abstract view
.subckt gf180mcu_fd_sc_mcu7t5v0__and2_1 A1 A2 Z VDD VSS
.ends

* Black-box entry subcircuit for gf180mcu_fd_sc_mcu7t5v0__nand3_2 abstract view
.subckt gf180mcu_fd_sc_mcu7t5v0__nand3_2 A1 A2 A3 ZN VDD VSS
.ends

* Black-box entry subcircuit for gf180mcu_fd_sc_mcu7t5v0__xnor2_2 abstract view
.subckt gf180mcu_fd_sc_mcu7t5v0__xnor2_2 A1 A2 ZN VDD VSS
.ends

* Black-box entry subcircuit for gf180mcu_fd_sc_mcu7t5v0__oai31_2 abstract view
.subckt gf180mcu_fd_sc_mcu7t5v0__oai31_2 A1 A2 A3 B ZN VDD VSS
.ends

* Black-box entry subcircuit for gf180mcu_fd_sc_mcu7t5v0__oai32_2 abstract view
.subckt gf180mcu_fd_sc_mcu7t5v0__oai32_2 A1 A2 A3 B1 B2 ZN VDD VSS
.ends

* Black-box entry subcircuit for gf180mcu_fd_sc_mcu7t5v0__xor3_1 abstract view
.subckt gf180mcu_fd_sc_mcu7t5v0__xor3_1 A1 A2 A3 Z VDD VSS
.ends

* Black-box entry subcircuit for gf180mcu_fd_sc_mcu7t5v0__xor2_1 abstract view
.subckt gf180mcu_fd_sc_mcu7t5v0__xor2_1 A1 A2 Z VDD VSS
.ends

* Black-box entry subcircuit for gf180mcu_fd_sc_mcu7t5v0__oai221_4 abstract view
.subckt gf180mcu_fd_sc_mcu7t5v0__oai221_4 A1 A2 B1 B2 C ZN VDD VSS
.ends

* Black-box entry subcircuit for gf180mcu_fd_sc_mcu7t5v0__nor4_2 abstract view
.subckt gf180mcu_fd_sc_mcu7t5v0__nor4_2 A1 A2 A3 A4 ZN VDD VSS
.ends

* Black-box entry subcircuit for gf180mcu_fd_sc_mcu7t5v0__mux4_1 abstract view
.subckt gf180mcu_fd_sc_mcu7t5v0__mux4_1 I0 I1 I2 I3 S0 S1 Z VDD VSS
.ends

* Black-box entry subcircuit for gf180mcu_fd_sc_mcu7t5v0__mux4_2 abstract view
.subckt gf180mcu_fd_sc_mcu7t5v0__mux4_2 I0 I1 I2 I3 S0 S1 Z VDD VSS
.ends

* Black-box entry subcircuit for gf180mcu_fd_sc_mcu7t5v0__aoi222_2 abstract view
.subckt gf180mcu_fd_sc_mcu7t5v0__aoi222_2 A1 A2 B1 B2 C1 C2 ZN VDD VSS
.ends

* Black-box entry subcircuit for gf180mcu_fd_sc_mcu7t5v0__dffq_2 abstract view
.subckt gf180mcu_fd_sc_mcu7t5v0__dffq_2 D CLK Q VDD VSS
.ends

.subckt tiny_user_project io_in[0] io_in[10] io_in[11] io_in[12] io_in[13] io_in[14]
+ io_in[15] io_in[16] io_in[17] io_in[18] io_in[19] io_in[1] io_in[20] io_in[21] io_in[22]
+ io_in[23] io_in[24] io_in[25] io_in[26] io_in[27] io_in[28] io_in[29] io_in[2] io_in[30]
+ io_in[31] io_in[32] io_in[33] io_in[34] io_in[35] io_in[36] io_in[37] io_in[3] io_in[4]
+ io_in[5] io_in[6] io_in[7] io_in[8] io_in[9] io_oeb[0] io_oeb[10] io_oeb[11] io_oeb[12]
+ io_oeb[13] io_oeb[14] io_oeb[15] io_oeb[16] io_oeb[17] io_oeb[18] io_oeb[19] io_oeb[1]
+ io_oeb[20] io_oeb[21] io_oeb[22] io_oeb[23] io_oeb[24] io_oeb[25] io_oeb[26] io_oeb[27]
+ io_oeb[28] io_oeb[29] io_oeb[2] io_oeb[30] io_oeb[31] io_oeb[32] io_oeb[33] io_oeb[34]
+ io_oeb[35] io_oeb[36] io_oeb[37] io_oeb[3] io_oeb[4] io_oeb[5] io_oeb[6] io_oeb[7]
+ io_oeb[8] io_oeb[9] io_out[0] io_out[10] io_out[11] io_out[12] io_out[13] io_out[14]
+ io_out[15] io_out[16] io_out[17] io_out[18] io_out[19] io_out[1] io_out[20] io_out[21]
+ io_out[22] io_out[23] io_out[24] io_out[25] io_out[26] io_out[27] io_out[28] io_out[29]
+ io_out[2] io_out[30] io_out[31] io_out[32] io_out[33] io_out[34] io_out[35] io_out[36]
+ io_out[37] io_out[3] io_out[4] io_out[5] io_out[6] io_out[7] io_out[8] io_out[9]
+ vccd1 vssd1
XFILLER_54_247 vccd1 vssd1 gf180mcu_fd_sc_mcu7t5v0__fill_1
XFILLER_39_244 vccd1 vssd1 gf180mcu_fd_sc_mcu7t5v0__fill_2
XFILLER_39_222 vccd1 vssd1 gf180mcu_fd_sc_mcu7t5v0__fill_2
XTAP_177 vccd1 vssd1 gf180mcu_fd_sc_mcu7t5v0__filltie
XTAP_188 vccd1 vssd1 gf180mcu_fd_sc_mcu7t5v0__filltie
XTAP_199 vccd1 vssd1 gf180mcu_fd_sc_mcu7t5v0__filltie
XFILLER_27_417 vccd1 vssd1 gf180mcu_fd_sc_mcu7t5v0__fill_2
XFILLER_7_7 vccd1 vssd1 gf180mcu_fd_sc_mcu7t5v0__fillcap_64
XFILLER_45_269 vccd1 vssd1 gf180mcu_fd_sc_mcu7t5v0__fill_2
X_294_ _040_ _054_ _103_ vccd1 vssd1 gf180mcu_fd_sc_mcu7t5v0__nand2_1
X_363_ mod.flipflop1.q net1 mod.flipflop44.q vccd1 vssd1 gf180mcu_fd_sc_mcu7t5v0__dffq_1
XFILLER_42_73 vccd1 vssd1 gf180mcu_fd_sc_mcu7t5v0__fill_2
XFILLER_9_137 vccd1 vssd1 gf180mcu_fd_sc_mcu7t5v0__fillcap_4
XFILLER_13_144 vccd1 vssd1 gf180mcu_fd_sc_mcu7t5v0__fillcap_64
XFILLER_54_9 vccd1 vssd1 gf180mcu_fd_sc_mcu7t5v0__fill_2
XFILLER_47_8 vccd1 vssd1 gf180mcu_fd_sc_mcu7t5v0__fill_2
XFILLER_5_354 vccd1 vssd1 gf180mcu_fd_sc_mcu7t5v0__fill_1
XFILLER_36_214 vccd1 vssd1 gf180mcu_fd_sc_mcu7t5v0__fill_2
XANTENNA__249__I _057_ vccd1 vssd1 gf180mcu_fd_sc_mcu7t5v0__antenna
XFILLER_50_250 vccd1 vssd1 gf180mcu_fd_sc_mcu7t5v0__fill_1
XANTENNA__159__I mod.flipflop40.q vccd1 vssd1 gf180mcu_fd_sc_mcu7t5v0__antenna
XFILLER_18_247 vccd1 vssd1 gf180mcu_fd_sc_mcu7t5v0__fill_1
XFILLER_37_73 vccd1 vssd1 gf180mcu_fd_sc_mcu7t5v0__fillcap_16
X_346_ mod.flipflop12.q net1 mod.flipflop13.q vccd1 vssd1 gf180mcu_fd_sc_mcu7t5v0__dffq_1
XFILLER_53_50 vccd1 vssd1 gf180mcu_fd_sc_mcu7t5v0__fill_2
XFILLER_41_283 vccd1 vssd1 gf180mcu_fd_sc_mcu7t5v0__fill_1
XFILLER_37_95 vccd1 vssd1 gf180mcu_fd_sc_mcu7t5v0__fill_1
X_277_ mod.flipflop35.q _085_ _086_ vccd1 vssd1 gf180mcu_fd_sc_mcu7t5v0__nor2_1
XFILLER_32_250 vccd1 vssd1 gf180mcu_fd_sc_mcu7t5v0__fillcap_64
XFILLER_23_283 vccd1 vssd1 gf180mcu_fd_sc_mcu7t5v0__fill_1
X_200_ mod.flipflop44.q mod.flipflop1.q mod.flipflop45.q _009_ _010_ vccd1 vssd1 gf180mcu_fd_sc_mcu7t5v0__nor4_1
XANTENNA__180__A2 _148_ vccd1 vssd1 gf180mcu_fd_sc_mcu7t5v0__antenna
XFILLER_7_405 vccd1 vssd1 gf180mcu_fd_sc_mcu7t5v0__fillcap_8
XFILLER_2_176 vccd1 vssd1 gf180mcu_fd_sc_mcu7t5v0__fill_1
XANTENNA__235__A3 _033_ vccd1 vssd1 gf180mcu_fd_sc_mcu7t5v0__antenna
X_329_ mod.flipflop33.d net1 mod.flipflop33.q vccd1 vssd1 gf180mcu_fd_sc_mcu7t5v0__dffq_1
XFILLER_14_250 vccd1 vssd1 gf180mcu_fd_sc_mcu7t5v0__fillcap_64
XFILLER_43_2 vccd1 vssd1 gf180mcu_fd_sc_mcu7t5v0__fill_1
XANTENNA__226__A3 _032_ vccd1 vssd1 gf180mcu_fd_sc_mcu7t5v0__antenna
XANTENNA__234__I0 _016_ vccd1 vssd1 gf180mcu_fd_sc_mcu7t5v0__antenna
XFILLER_52_301 vccd1 vssd1 gf180mcu_fd_sc_mcu7t5v0__fill_2
XFILLER_4_419 vccd1 vssd1 gf180mcu_fd_sc_mcu7t5v0__fill_1
XFILLER_4_408 vccd1 vssd1 gf180mcu_fd_sc_mcu7t5v0__fillcap_4
XANTENNA__351__CLK net1 vccd1 vssd1 gf180mcu_fd_sc_mcu7t5v0__antenna
XFILLER_43_301 vccd1 vssd1 gf180mcu_fd_sc_mcu7t5v0__fill_2
XFILLER_18_31 vccd1 vssd1 gf180mcu_fd_sc_mcu7t5v0__fillcap_4
XFILLER_43_389 vccd1 vssd1 gf180mcu_fd_sc_mcu7t5v0__fillcap_16
XANTENNA__172__I _146_ vccd1 vssd1 gf180mcu_fd_sc_mcu7t5v0__antenna
XFILLER_7_279 vccd1 vssd1 gf180mcu_fd_sc_mcu7t5v0__fillcap_4
XFILLER_11_286 vccd1 vssd1 gf180mcu_fd_sc_mcu7t5v0__fillcap_64
XFILLER_38_139 vccd1 vssd1 gf180mcu_fd_sc_mcu7t5v0__fill_2
XFILLER_34_389 vccd1 vssd1 gf180mcu_fd_sc_mcu7t5v0__fill_1
XFILLER_37_183 vccd1 vssd1 gf180mcu_fd_sc_mcu7t5v0__fill_2
XFILLER_25_389 vccd1 vssd1 gf180mcu_fd_sc_mcu7t5v0__fillcap_16
XFILLER_0_411 vccd1 vssd1 gf180mcu_fd_sc_mcu7t5v0__fill_2
XFILLER_45_95 vccd1 vssd1 gf180mcu_fd_sc_mcu7t5v0__fill_2
XFILLER_45_73 vccd1 vssd1 gf180mcu_fd_sc_mcu7t5v0__fillcap_4
XFILLER_45_62 vccd1 vssd1 gf180mcu_fd_sc_mcu7t5v0__fill_2
XANTENNA__167__I mod.flipflop42.q vccd1 vssd1 gf180mcu_fd_sc_mcu7t5v0__antenna
XFILLER_16_389 vccd1 vssd1 gf180mcu_fd_sc_mcu7t5v0__fill_1
XFILLER_28_172 vccd1 vssd1 gf180mcu_fd_sc_mcu7t5v0__fillcap_4
XFILLER_6_34 vccd1 vssd1 gf180mcu_fd_sc_mcu7t5v0__fill_1
XTAP_348 vccd1 vssd1 gf180mcu_fd_sc_mcu7t5v0__filltie
XTAP_337 vccd1 vssd1 gf180mcu_fd_sc_mcu7t5v0__filltie
XTAP_304 vccd1 vssd1 gf180mcu_fd_sc_mcu7t5v0__filltie
XTAP_315 vccd1 vssd1 gf180mcu_fd_sc_mcu7t5v0__filltie
XTAP_326 vccd1 vssd1 gf180mcu_fd_sc_mcu7t5v0__filltie
XTAP_359 vccd1 vssd1 gf180mcu_fd_sc_mcu7t5v0__filltie
XFILLER_34_164 vccd1 vssd1 gf180mcu_fd_sc_mcu7t5v0__fill_2
XFILLER_34_186 vccd1 vssd1 gf180mcu_fd_sc_mcu7t5v0__fill_2
XFILLER_30_392 vccd1 vssd1 gf180mcu_fd_sc_mcu7t5v0__fillcap_16
XFILLER_1_208 vccd1 vssd1 gf180mcu_fd_sc_mcu7t5v0__fillcap_4
XFILLER_40_101 vccd1 vssd1 gf180mcu_fd_sc_mcu7t5v0__fill_2
XFILLER_40_145 vccd1 vssd1 gf180mcu_fd_sc_mcu7t5v0__fill_2
XFILLER_48_223 vccd1 vssd1 gf180mcu_fd_sc_mcu7t5v0__fill_2
XFILLER_0_252 vccd1 vssd1 gf180mcu_fd_sc_mcu7t5v0__fillcap_16
XFILLER_8_385 vccd1 vssd1 gf180mcu_fd_sc_mcu7t5v0__fillcap_4
XFILLER_12_392 vccd1 vssd1 gf180mcu_fd_sc_mcu7t5v0__fillcap_16
XANTENNA__283__A1 _065_ vccd1 vssd1 gf180mcu_fd_sc_mcu7t5v0__antenna
XFILLER_39_212 vccd1 vssd1 gf180mcu_fd_sc_mcu7t5v0__fill_1
XTAP_167 vccd1 vssd1 gf180mcu_fd_sc_mcu7t5v0__filltie
XTAP_156 vccd1 vssd1 gf180mcu_fd_sc_mcu7t5v0__filltie
XTAP_145 vccd1 vssd1 gf180mcu_fd_sc_mcu7t5v0__filltie
XTAP_134 vccd1 vssd1 gf180mcu_fd_sc_mcu7t5v0__filltie
XTAP_112 vccd1 vssd1 gf180mcu_fd_sc_mcu7t5v0__filltie
XTAP_123 vccd1 vssd1 gf180mcu_fd_sc_mcu7t5v0__filltie
XTAP_178 vccd1 vssd1 gf180mcu_fd_sc_mcu7t5v0__filltie
XTAP_189 vccd1 vssd1 gf180mcu_fd_sc_mcu7t5v0__filltie
XFILLER_39_201 vccd1 vssd1 gf180mcu_fd_sc_mcu7t5v0__fill_2
XFILLER_54_226 vccd1 vssd1 gf180mcu_fd_sc_mcu7t5v0__fill_2
XFILLER_39_256 vccd1 vssd1 gf180mcu_fd_sc_mcu7t5v0__fill_2
XFILLER_52_19 vccd1 vssd1 gf180mcu_fd_sc_mcu7t5v0__fill_1
XFILLER_10_318 vccd1 vssd1 gf180mcu_fd_sc_mcu7t5v0__fill_1
XFILLER_22_101 vccd1 vssd1 gf180mcu_fd_sc_mcu7t5v0__fillcap_4
XANTENNA__274__A1 net4 vccd1 vssd1 gf180mcu_fd_sc_mcu7t5v0__antenna
XFILLER_45_215 vccd1 vssd1 gf180mcu_fd_sc_mcu7t5v0__fill_1
XFILLER_45_259 vccd1 vssd1 gf180mcu_fd_sc_mcu7t5v0__fill_2
X_362_ mod.flipflop44.q net1 mod.flipflop45.q vccd1 vssd1 gf180mcu_fd_sc_mcu7t5v0__dffq_1
XFILLER_42_85 vccd1 vssd1 gf180mcu_fd_sc_mcu7t5v0__fill_2
XFILLER_42_41 vccd1 vssd1 gf180mcu_fd_sc_mcu7t5v0__fill_2
X_293_ _054_ _062_ _102_ vccd1 vssd1 gf180mcu_fd_sc_mcu7t5v0__nor2_1
XANTENNA__265__A1 _040_ vccd1 vssd1 gf180mcu_fd_sc_mcu7t5v0__antenna
XFILLER_36_226 vccd1 vssd1 gf180mcu_fd_sc_mcu7t5v0__fill_2
XFILLER_44_281 vccd1 vssd1 gf180mcu_fd_sc_mcu7t5v0__fill_2
XFILLER_27_215 vccd1 vssd1 gf180mcu_fd_sc_mcu7t5v0__fillcap_64
XFILLER_50_240 vccd1 vssd1 gf180mcu_fd_sc_mcu7t5v0__fill_2
XFILLER_35_270 vccd1 vssd1 gf180mcu_fd_sc_mcu7t5v0__fillcap_8
XFILLER_6_108 vccd1 vssd1 gf180mcu_fd_sc_mcu7t5v0__fillcap_64
XFILLER_2_314 vccd1 vssd1 gf180mcu_fd_sc_mcu7t5v0__fillcap_4
XANTENNA__247__A1 _013_ vccd1 vssd1 gf180mcu_fd_sc_mcu7t5v0__antenna
XFILLER_53_84 vccd1 vssd1 gf180mcu_fd_sc_mcu7t5v0__fill_2
XFILLER_53_73 vccd1 vssd1 gf180mcu_fd_sc_mcu7t5v0__fill_1
XFILLER_53_62 vccd1 vssd1 gf180mcu_fd_sc_mcu7t5v0__fill_2
X_276_ _082_ _054_ _066_ _059_ _084_ _085_ vccd1 vssd1 gf180mcu_fd_sc_mcu7t5v0__aoi221_2
XANTENNA__175__I _149_ vccd1 vssd1 gf180mcu_fd_sc_mcu7t5v0__antenna
X_345_ mod.flipflop13.q net1 mod.flipflop14.q vccd1 vssd1 gf180mcu_fd_sc_mcu7t5v0__dffq_1
XFILLER_41_251 vccd1 vssd1 gf180mcu_fd_sc_mcu7t5v0__fill_2
XFILLER_5_141 vccd1 vssd1 gf180mcu_fd_sc_mcu7t5v0__fill_1
XFILLER_49_351 vccd1 vssd1 gf180mcu_fd_sc_mcu7t5v0__fillcap_4
XANTENNA__238__A1 _046_ vccd1 vssd1 gf180mcu_fd_sc_mcu7t5v0__antenna
XANTENNA__229__A1 mod.flipflop41.q vccd1 vssd1 gf180mcu_fd_sc_mcu7t5v0__antenna
XFILLER_11_413 vccd1 vssd1 gf180mcu_fd_sc_mcu7t5v0__fill_2
XFILLER_7_417 vccd1 vssd1 gf180mcu_fd_sc_mcu7t5v0__fill_2
XFILLER_48_62 vccd1 vssd1 gf180mcu_fd_sc_mcu7t5v0__fill_2
XFILLER_3_2 vccd1 vssd1 gf180mcu_fd_sc_mcu7t5v0__fillcap_64
XFILLER_46_321 vccd1 vssd1 gf180mcu_fd_sc_mcu7t5v0__fill_1
XFILLER_46_332 vccd1 vssd1 gf180mcu_fd_sc_mcu7t5v0__fill_2
XFILLER_0_58 vccd1 vssd1 gf180mcu_fd_sc_mcu7t5v0__fillcap_8
X_328_ mod.flipflop34.d net1 mod.flipflop34.q vccd1 vssd1 gf180mcu_fd_sc_mcu7t5v0__dffq_1
X_259_ _134_ _068_ vccd1 vssd1 gf180mcu_fd_sc_mcu7t5v0__clkinv_1
XFILLER_36_2 vccd1 vssd1 gf180mcu_fd_sc_mcu7t5v0__fillcap_32
XFILLER_37_354 vccd1 vssd1 gf180mcu_fd_sc_mcu7t5v0__fill_1
XANTENNA__234__I1 _042_ vccd1 vssd1 gf180mcu_fd_sc_mcu7t5v0__antenna
XFILLER_52_324 vccd1 vssd1 gf180mcu_fd_sc_mcu7t5v0__fill_2
XFILLER_52_313 vccd1 vssd1 gf180mcu_fd_sc_mcu7t5v0__fill_2
XANTENNA__162__A3 mod.flipflop28.q vccd1 vssd1 gf180mcu_fd_sc_mcu7t5v0__antenna
XFILLER_20_243 vccd1 vssd1 gf180mcu_fd_sc_mcu7t5v0__fillcap_4
XFILLER_43_357 vccd1 vssd1 gf180mcu_fd_sc_mcu7t5v0__fillcap_32
XFILLER_28_321 vccd1 vssd1 gf180mcu_fd_sc_mcu7t5v0__fillcap_64
XFILLER_34_31 vccd1 vssd1 gf180mcu_fd_sc_mcu7t5v0__fillcap_4
XFILLER_50_30 vccd1 vssd1 gf180mcu_fd_sc_mcu7t5v0__fill_2
XANTENNA_output12_I net12 vccd1 vssd1 gf180mcu_fd_sc_mcu7t5v0__antenna
XFILLER_50_74 vccd1 vssd1 gf180mcu_fd_sc_mcu7t5v0__fill_2
XANTENNA__310__B1 _112_ vccd1 vssd1 gf180mcu_fd_sc_mcu7t5v0__antenna
XFILLER_19_354 vccd1 vssd1 gf180mcu_fd_sc_mcu7t5v0__fill_1
XFILLER_25_357 vccd1 vssd1 gf180mcu_fd_sc_mcu7t5v0__fillcap_32
XFILLER_37_195 vccd1 vssd1 gf180mcu_fd_sc_mcu7t5v0__fill_2
XFILLER_52_176 vccd1 vssd1 gf180mcu_fd_sc_mcu7t5v0__fill_1
XFILLER_0_401 vccd1 vssd1 gf180mcu_fd_sc_mcu7t5v0__fillcap_4
XFILLER_48_416 vccd1 vssd1 gf180mcu_fd_sc_mcu7t5v0__fillcap_4
XFILLER_45_85 vccd1 vssd1 gf180mcu_fd_sc_mcu7t5v0__fill_2
XFILLER_45_30 vccd1 vssd1 gf180mcu_fd_sc_mcu7t5v0__fill_2
XFILLER_43_110 vccd1 vssd1 gf180mcu_fd_sc_mcu7t5v0__fill_2
XANTENNA__206__S0 mod.flipflop42.q vccd1 vssd1 gf180mcu_fd_sc_mcu7t5v0__antenna
XTAP_349 vccd1 vssd1 gf180mcu_fd_sc_mcu7t5v0__filltie
XTAP_338 vccd1 vssd1 gf180mcu_fd_sc_mcu7t5v0__filltie
XFILLER_39_405 vccd1 vssd1 gf180mcu_fd_sc_mcu7t5v0__fillcap_8
XFILLER_3_283 vccd1 vssd1 gf180mcu_fd_sc_mcu7t5v0__fill_1
XTAP_305 vccd1 vssd1 gf180mcu_fd_sc_mcu7t5v0__filltie
XTAP_316 vccd1 vssd1 gf180mcu_fd_sc_mcu7t5v0__filltie
XTAP_327 vccd1 vssd1 gf180mcu_fd_sc_mcu7t5v0__filltie
XFILLER_54_419 vccd1 vssd1 gf180mcu_fd_sc_mcu7t5v0__fill_1
XFILLER_34_143 vccd1 vssd1 gf180mcu_fd_sc_mcu7t5v0__fill_2
XFILLER_34_176 vccd1 vssd1 gf180mcu_fd_sc_mcu7t5v0__fill_1
XFILLER_34_198 vccd1 vssd1 gf180mcu_fd_sc_mcu7t5v0__fill_2
XANTENNA__341__CLK net1 vccd1 vssd1 gf180mcu_fd_sc_mcu7t5v0__antenna
XFILLER_45_419 vccd1 vssd1 gf180mcu_fd_sc_mcu7t5v0__fill_1
XFILLER_40_124 vccd1 vssd1 gf180mcu_fd_sc_mcu7t5v0__fill_2
XFILLER_15_66 vccd1 vssd1 gf180mcu_fd_sc_mcu7t5v0__fillcap_4
XFILLER_40_179 vccd1 vssd1 gf180mcu_fd_sc_mcu7t5v0__fill_1
Xoutput10 net10 io_out[21] vccd1 vssd1 gf180mcu_fd_sc_mcu7t5v0__clkbuf_4
XFILLER_0_220 vccd1 vssd1 gf180mcu_fd_sc_mcu7t5v0__fill_2
XFILLER_48_246 vccd1 vssd1 gf180mcu_fd_sc_mcu7t5v0__fill_2
XFILLER_0_275 vccd1 vssd1 gf180mcu_fd_sc_mcu7t5v0__fillcap_4
XFILLER_36_408 vccd1 vssd1 gf180mcu_fd_sc_mcu7t5v0__fillcap_4
XFILLER_36_419 vccd1 vssd1 gf180mcu_fd_sc_mcu7t5v0__fill_1
XANTENNA__364__CLK net1 vccd1 vssd1 gf180mcu_fd_sc_mcu7t5v0__antenna
XFILLER_16_176 vccd1 vssd1 gf180mcu_fd_sc_mcu7t5v0__fill_1
XANTENNA__289__S _049_ vccd1 vssd1 gf180mcu_fd_sc_mcu7t5v0__antenna
XANTENNA_input3_I io_in[14] vccd1 vssd1 gf180mcu_fd_sc_mcu7t5v0__antenna
XANTENNA__283__A2 _082_ vccd1 vssd1 gf180mcu_fd_sc_mcu7t5v0__antenna
XFILLER_39_268 vccd1 vssd1 gf180mcu_fd_sc_mcu7t5v0__fillcap_16
XTAP_168 vccd1 vssd1 gf180mcu_fd_sc_mcu7t5v0__filltie
XTAP_157 vccd1 vssd1 gf180mcu_fd_sc_mcu7t5v0__filltie
XTAP_146 vccd1 vssd1 gf180mcu_fd_sc_mcu7t5v0__filltie
XTAP_135 vccd1 vssd1 gf180mcu_fd_sc_mcu7t5v0__filltie
XTAP_113 vccd1 vssd1 gf180mcu_fd_sc_mcu7t5v0__filltie
XTAP_124 vccd1 vssd1 gf180mcu_fd_sc_mcu7t5v0__filltie
XTAP_179 vccd1 vssd1 gf180mcu_fd_sc_mcu7t5v0__filltie
XFILLER_54_238 vccd1 vssd1 gf180mcu_fd_sc_mcu7t5v0__fill_2
XFILLER_27_419 vccd1 vssd1 gf180mcu_fd_sc_mcu7t5v0__fill_1
XFILLER_22_179 vccd1 vssd1 gf180mcu_fd_sc_mcu7t5v0__fillcap_64
XANTENNA__274__A2 _027_ vccd1 vssd1 gf180mcu_fd_sc_mcu7t5v0__antenna
XFILLER_18_408 vccd1 vssd1 gf180mcu_fd_sc_mcu7t5v0__fillcap_4
XFILLER_18_419 vccd1 vssd1 gf180mcu_fd_sc_mcu7t5v0__fill_1
XFILLER_53_293 vccd1 vssd1 gf180mcu_fd_sc_mcu7t5v0__fill_2
XFILLER_53_271 vccd1 vssd1 gf180mcu_fd_sc_mcu7t5v0__fill_2
X_361_ mod.flipflop45.q net1 net15 vccd1 vssd1 gf180mcu_fd_sc_mcu7t5v0__dffq_1
X_292_ mod.flipflop37.q _101_ vccd1 vssd1 gf180mcu_fd_sc_mcu7t5v0__clkinv_1
XFILLER_42_53 vccd1 vssd1 gf180mcu_fd_sc_mcu7t5v0__fill_2
XFILLER_42_97 vccd1 vssd1 gf180mcu_fd_sc_mcu7t5v0__fill_2
XFILLER_5_389 vccd1 vssd1 gf180mcu_fd_sc_mcu7t5v0__fillcap_16
XANTENNA__265__A2 _051_ vccd1 vssd1 gf180mcu_fd_sc_mcu7t5v0__antenna
XFILLER_36_205 vccd1 vssd1 gf180mcu_fd_sc_mcu7t5v0__fill_2
XFILLER_44_293 vccd1 vssd1 gf180mcu_fd_sc_mcu7t5v0__fill_2
XFILLER_8_172 vccd1 vssd1 gf180mcu_fd_sc_mcu7t5v0__fillcap_4
XFILLER_50_285 vccd1 vssd1 gf180mcu_fd_sc_mcu7t5v0__fill_2
XFILLER_50_263 vccd1 vssd1 gf180mcu_fd_sc_mcu7t5v0__fill_2
XFILLER_10_105 vccd1 vssd1 gf180mcu_fd_sc_mcu7t5v0__fill_1
XFILLER_35_282 vccd1 vssd1 gf180mcu_fd_sc_mcu7t5v0__fill_2
XFILLER_12_34 vccd1 vssd1 gf180mcu_fd_sc_mcu7t5v0__fill_1
XANTENNA__247__A2 _016_ vccd1 vssd1 gf180mcu_fd_sc_mcu7t5v0__antenna
XFILLER_53_30 vccd1 vssd1 gf180mcu_fd_sc_mcu7t5v0__fill_2
XANTENNA__183__A1 mod.flipflop31.q vccd1 vssd1 gf180mcu_fd_sc_mcu7t5v0__antenna
X_344_ mod.flipflop18.d net1 mod.flipflop18.q vccd1 vssd1 gf180mcu_fd_sc_mcu7t5v0__dffq_1
XFILLER_41_263 vccd1 vssd1 gf180mcu_fd_sc_mcu7t5v0__fill_2
X_275_ _061_ _083_ _077_ _056_ _084_ vccd1 vssd1 gf180mcu_fd_sc_mcu7t5v0__aoi22_1
XFILLER_45_7 vccd1 vssd1 gf180mcu_fd_sc_mcu7t5v0__fillcap_8
XANTENNA__238__A2 _044_ vccd1 vssd1 gf180mcu_fd_sc_mcu7t5v0__antenna
XANTENNA__315__B _122_ vccd1 vssd1 gf180mcu_fd_sc_mcu7t5v0__antenna
XANTENNA__174__A1 _134_ vccd1 vssd1 gf180mcu_fd_sc_mcu7t5v0__antenna
XANTENNA__229__A2 _037_ vccd1 vssd1 gf180mcu_fd_sc_mcu7t5v0__antenna
XFILLER_15_208 vccd1 vssd1 gf180mcu_fd_sc_mcu7t5v0__fillcap_4
XANTENNA__165__A1 mod.flipflop11.d vccd1 vssd1 gf180mcu_fd_sc_mcu7t5v0__antenna
XFILLER_2_101 vccd1 vssd1 gf180mcu_fd_sc_mcu7t5v0__fillcap_4
XFILLER_48_74 vccd1 vssd1 gf180mcu_fd_sc_mcu7t5v0__fill_2
XFILLER_48_52 vccd1 vssd1 gf180mcu_fd_sc_mcu7t5v0__fill_2
XFILLER_48_30 vccd1 vssd1 gf180mcu_fd_sc_mcu7t5v0__fill_2
XFILLER_46_311 vccd1 vssd1 gf180mcu_fd_sc_mcu7t5v0__fill_2
XFILLER_46_388 vccd1 vssd1 gf180mcu_fd_sc_mcu7t5v0__fill_2
XFILLER_0_37 vccd1 vssd1 gf180mcu_fd_sc_mcu7t5v0__fill_1
XANTENNA__186__I _001_ vccd1 vssd1 gf180mcu_fd_sc_mcu7t5v0__antenna
X_327_ mod.flipflop34.q net1 mod.flipflop35.q vccd1 vssd1 gf180mcu_fd_sc_mcu7t5v0__dffq_1
XANTENNA__171__A4 _145_ vccd1 vssd1 gf180mcu_fd_sc_mcu7t5v0__antenna
X_258_ _065_ _049_ _066_ _067_ vccd1 vssd1 gf180mcu_fd_sc_mcu7t5v0__and3_1
X_189_ mod.flipflop20.q _153_ _003_ vccd1 vssd1 gf180mcu_fd_sc_mcu7t5v0__or2_1
XANTENNA__156__A1 mod.flipflop11.d vccd1 vssd1 gf180mcu_fd_sc_mcu7t5v0__antenna
XFILLER_29_2 vccd1 vssd1 gf180mcu_fd_sc_mcu7t5v0__fillcap_64
XFILLER_52_336 vccd1 vssd1 gf180mcu_fd_sc_mcu7t5v0__fill_2
XFILLER_50_42 vccd1 vssd1 gf180mcu_fd_sc_mcu7t5v0__fill_2
XFILLER_7_215 vccd1 vssd1 gf180mcu_fd_sc_mcu7t5v0__fillcap_64
XANTENNA__310__A1 mod.flipflop39.q vccd1 vssd1 gf180mcu_fd_sc_mcu7t5v0__antenna
XFILLER_34_314 vccd1 vssd1 gf180mcu_fd_sc_mcu7t5v0__fillcap_4
XFILLER_38_108 vccd1 vssd1 gf180mcu_fd_sc_mcu7t5v0__fill_1
XFILLER_38_119 vccd1 vssd1 gf180mcu_fd_sc_mcu7t5v0__fill_2
XANTENNA__301__A1 _038_ vccd1 vssd1 gf180mcu_fd_sc_mcu7t5v0__antenna
XFILLER_40_317 vccd1 vssd1 gf180mcu_fd_sc_mcu7t5v0__fill_2
XFILLER_37_130 vccd1 vssd1 gf180mcu_fd_sc_mcu7t5v0__fill_2
XFILLER_37_141 vccd1 vssd1 gf180mcu_fd_sc_mcu7t5v0__fill_1
XFILLER_20_23 vccd1 vssd1 gf180mcu_fd_sc_mcu7t5v0__fillcap_8
XFILLER_43_100 vccd1 vssd1 gf180mcu_fd_sc_mcu7t5v0__fill_2
XFILLER_16_314 vccd1 vssd1 gf180mcu_fd_sc_mcu7t5v0__fillcap_4
XFILLER_45_42 vccd1 vssd1 gf180mcu_fd_sc_mcu7t5v0__fill_2
XFILLER_43_144 vccd1 vssd1 gf180mcu_fd_sc_mcu7t5v0__fill_2
XANTENNA__206__S1 mod.flipflop43.q vccd1 vssd1 gf180mcu_fd_sc_mcu7t5v0__antenna
XTAP_339 vccd1 vssd1 gf180mcu_fd_sc_mcu7t5v0__filltie
XFILLER_39_417 vccd1 vssd1 gf180mcu_fd_sc_mcu7t5v0__fill_2
XTAP_306 vccd1 vssd1 gf180mcu_fd_sc_mcu7t5v0__filltie
XTAP_317 vccd1 vssd1 gf180mcu_fd_sc_mcu7t5v0__filltie
XTAP_328 vccd1 vssd1 gf180mcu_fd_sc_mcu7t5v0__filltie
XFILLER_19_141 vccd1 vssd1 gf180mcu_fd_sc_mcu7t5v0__fill_1
XFILLER_34_133 vccd1 vssd1 gf180mcu_fd_sc_mcu7t5v0__fillcap_8
XFILLER_25_144 vccd1 vssd1 gf180mcu_fd_sc_mcu7t5v0__fillcap_64
XFILLER_21_350 vccd1 vssd1 gf180mcu_fd_sc_mcu7t5v0__fillcap_4
XFILLER_31_66 vccd1 vssd1 gf180mcu_fd_sc_mcu7t5v0__fillcap_4
Xoutput11 net11 io_out[22] vccd1 vssd1 gf180mcu_fd_sc_mcu7t5v0__clkbuf_4
Xoutput9 net9 io_out[20] vccd1 vssd1 gf180mcu_fd_sc_mcu7t5v0__clkbuf_4
XFILLER_0_243 vccd1 vssd1 gf180mcu_fd_sc_mcu7t5v0__fill_2
XFILLER_0_298 vccd1 vssd1 gf180mcu_fd_sc_mcu7t5v0__fill_2
XFILLER_8_321 vccd1 vssd1 gf180mcu_fd_sc_mcu7t5v0__fillcap_64
XANTENNA__194__I _005_ vccd1 vssd1 gf180mcu_fd_sc_mcu7t5v0__antenna
XTAP_114 vccd1 vssd1 gf180mcu_fd_sc_mcu7t5v0__filltie
XFILLER_39_236 vccd1 vssd1 gf180mcu_fd_sc_mcu7t5v0__fill_2
XTAP_169 vccd1 vssd1 gf180mcu_fd_sc_mcu7t5v0__filltie
XTAP_158 vccd1 vssd1 gf180mcu_fd_sc_mcu7t5v0__filltie
XTAP_147 vccd1 vssd1 gf180mcu_fd_sc_mcu7t5v0__filltie
XTAP_136 vccd1 vssd1 gf180mcu_fd_sc_mcu7t5v0__filltie
XTAP_125 vccd1 vssd1 gf180mcu_fd_sc_mcu7t5v0__filltie
XFILLER_11_2 vccd1 vssd1 gf180mcu_fd_sc_mcu7t5v0__fillcap_64
XFILLER_53_283 vccd1 vssd1 gf180mcu_fd_sc_mcu7t5v0__fill_1
XFILLER_53_261 vccd1 vssd1 gf180mcu_fd_sc_mcu7t5v0__fill_2
X_291_ _086_ _093_ _099_ _100_ vccd1 vssd1 gf180mcu_fd_sc_mcu7t5v0__oai21_1
X_360_ mod.flipflop10.d net15 net9 vccd1 vssd1 gf180mcu_fd_sc_mcu7t5v0__dffq_1
XFILLER_42_65 vccd1 vssd1 gf180mcu_fd_sc_mcu7t5v0__fill_2
XFILLER_5_357 vccd1 vssd1 gf180mcu_fd_sc_mcu7t5v0__fillcap_32
XANTENNA__331__CLK net1 vccd1 vssd1 gf180mcu_fd_sc_mcu7t5v0__antenna
XFILLER_44_250 vccd1 vssd1 gf180mcu_fd_sc_mcu7t5v0__fill_1
XFILLER_42_209 vccd1 vssd1 gf180mcu_fd_sc_mcu7t5v0__fill_2
XFILLER_50_297 vccd1 vssd1 gf180mcu_fd_sc_mcu7t5v0__fill_2
XFILLER_50_275 vccd1 vssd1 gf180mcu_fd_sc_mcu7t5v0__fill_2
XFILLER_5_7 vccd1 vssd1 gf180mcu_fd_sc_mcu7t5v0__fillcap_64
XANTENNA__354__CLK net1 vccd1 vssd1 gf180mcu_fd_sc_mcu7t5v0__antenna
XANTENNA__247__A3 _020_ vccd1 vssd1 gf180mcu_fd_sc_mcu7t5v0__antenna
XFILLER_53_42 vccd1 vssd1 gf180mcu_fd_sc_mcu7t5v0__fill_2
XFILLER_26_250 vccd1 vssd1 gf180mcu_fd_sc_mcu7t5v0__fillcap_64
XFILLER_37_98 vccd1 vssd1 gf180mcu_fd_sc_mcu7t5v0__fill_2
XANTENNA__183__A2 _153_ vccd1 vssd1 gf180mcu_fd_sc_mcu7t5v0__antenna
X_343_ mod.flipflop18.q net1 mod.flipflop19.q vccd1 vssd1 gf180mcu_fd_sc_mcu7t5v0__dffq_1
X_274_ net4 _027_ _083_ vccd1 vssd1 gf180mcu_fd_sc_mcu7t5v0__nand2_1
XFILLER_41_286 vccd1 vssd1 gf180mcu_fd_sc_mcu7t5v0__fill_1
XFILLER_41_275 vccd1 vssd1 gf180mcu_fd_sc_mcu7t5v0__fill_2
XFILLER_38_7 vccd1 vssd1 gf180mcu_fd_sc_mcu7t5v0__fillcap_8
XFILLER_49_331 vccd1 vssd1 gf180mcu_fd_sc_mcu7t5v0__fill_2
XFILLER_17_283 vccd1 vssd1 gf180mcu_fd_sc_mcu7t5v0__fill_1
XFILLER_32_242 vccd1 vssd1 gf180mcu_fd_sc_mcu7t5v0__fillcap_4
XANTENNA__315__C _131_ vccd1 vssd1 gf180mcu_fd_sc_mcu7t5v0__antenna
XANTENNA__174__A2 _148_ vccd1 vssd1 gf180mcu_fd_sc_mcu7t5v0__antenna
XANTENNA__165__A2 mod.flipflop8.q vccd1 vssd1 gf180mcu_fd_sc_mcu7t5v0__antenna
XANTENNA__292__I mod.flipflop37.q vccd1 vssd1 gf180mcu_fd_sc_mcu7t5v0__antenna
XFILLER_7_419 vccd1 vssd1 gf180mcu_fd_sc_mcu7t5v0__fill_1
XFILLER_23_286 vccd1 vssd1 gf180mcu_fd_sc_mcu7t5v0__fillcap_64
XFILLER_2_179 vccd1 vssd1 gf180mcu_fd_sc_mcu7t5v0__fillcap_64
XFILLER_0_27 vccd1 vssd1 gf180mcu_fd_sc_mcu7t5v0__fillcap_8
X_326_ mod.flipflop35.q net1 mod.flipflop36.q vccd1 vssd1 gf180mcu_fd_sc_mcu7t5v0__dffq_1
X_188_ _002_ mod.flipflop27.d vccd1 vssd1 gf180mcu_fd_sc_mcu7t5v0__clkbuf_1
XANTENNA__156__A2 mod.flipflop8.q vccd1 vssd1 gf180mcu_fd_sc_mcu7t5v0__antenna
X_257_ net4 _027_ _066_ vccd1 vssd1 gf180mcu_fd_sc_mcu7t5v0__nor2_1
XFILLER_52_348 vccd1 vssd1 gf180mcu_fd_sc_mcu7t5v0__fillcap_32
XFILLER_37_389 vccd1 vssd1 gf180mcu_fd_sc_mcu7t5v0__fillcap_16
XFILLER_18_23 vccd1 vssd1 gf180mcu_fd_sc_mcu7t5v0__fillcap_8
XFILLER_11_212 vccd1 vssd1 gf180mcu_fd_sc_mcu7t5v0__fill_1
XFILLER_28_389 vccd1 vssd1 gf180mcu_fd_sc_mcu7t5v0__fill_1
XFILLER_50_54 vccd1 vssd1 gf180mcu_fd_sc_mcu7t5v0__fill_2
XFILLER_19_389 vccd1 vssd1 gf180mcu_fd_sc_mcu7t5v0__fillcap_16
X_309_ _114_ _038_ _116_ _117_ _118_ vccd1 vssd1 gf180mcu_fd_sc_mcu7t5v0__aoi211_2
XFILLER_42_392 vccd1 vssd1 gf180mcu_fd_sc_mcu7t5v0__fillcap_16