*SPEF "ieee 1481-1999"
*DESIGN "tiny_user_project"
*DATE "11:11:11 Fri 11 11, 1111"
*VENDOR "OpenRCX"
*PROGRAM "Parallel Extraction"
*VERSION "1.0"
*DESIGN_FLOW "NAME_SCOPE LOCAL" "PIN_CAP NONE"
*DIVIDER /
*DELIMITER :
*BUS_DELIMITER []
*T_UNIT 1 NS
*C_UNIT 1 PF
*R_UNIT 1 OHM
*L_UNIT 1 HENRY

*NAME_MAP
*1 io_in[0]
*2 io_in[10]
*3 io_in[11]
*4 io_in[12]
*5 io_in[13]
*6 io_in[14]
*7 io_in[15]
*8 io_in[16]
*9 io_in[17]
*10 io_in[18]
*11 io_in[19]
*12 io_in[1]
*13 io_in[20]
*14 io_in[21]
*15 io_in[22]
*16 io_in[23]
*17 io_in[24]
*18 io_in[25]
*19 io_in[26]
*20 io_in[27]
*21 io_in[28]
*22 io_in[29]
*23 io_in[2]
*24 io_in[30]
*25 io_in[31]
*26 io_in[32]
*27 io_in[33]
*28 io_in[34]
*29 io_in[35]
*30 io_in[36]
*31 io_in[37]
*32 io_in[3]
*33 io_in[4]
*34 io_in[5]
*35 io_in[6]
*36 io_in[7]
*37 io_in[8]
*38 io_in[9]
*39 net52
*40 net62
*41 net63
*42 net64
*43 net65
*44 net66
*45 net67
*46 net68
*47 net69
*48 net70
*49 net71
*50 net53
*51 net72
*52 net73
*53 net74
*54 net75
*55 net76
*56 net77
*57 net78
*58 net79
*59 net80
*60 net81
*61 net54
*62 net82
*63 net83
*64 net84
*65 net16
*66 net17
*67 net18
*68 net19
*69 net20
*70 net55
*71 net56
*72 net57
*73 net58
*74 net59
*75 net60
*76 net61
*77 net21
*78 net31
*79 net32
*80 net33
*81 net34
*82 net35
*83 net36
*84 net37
*85 net38
*86 net39
*87 net40
*88 net22
*89 io_out[20]
*90 io_out[21]
*91 io_out[22]
*92 io_out[23]
*93 io_out[24]
*94 io_out[25]
*95 net41
*96 io_out[27]
*97 net42
*98 net43
*99 net23
*100 net44
*101 net45
*102 net46
*103 net47
*104 net48
*105 net49
*106 net50
*107 net51
*108 net24
*109 net25
*110 net26
*111 net27
*112 net28
*113 net29
*114 net30
*117 _000_
*118 _001_
*119 _002_
*120 _003_
*121 _004_
*122 _005_
*123 _006_
*124 _007_
*125 _008_
*126 _009_
*127 _010_
*128 _011_
*129 _012_
*130 _013_
*131 _014_
*132 _015_
*133 _016_
*134 _017_
*135 _018_
*136 _019_
*137 _020_
*138 _021_
*139 _022_
*140 _023_
*141 _024_
*142 _025_
*143 _026_
*144 _027_
*145 _028_
*146 _029_
*147 _030_
*148 _031_
*149 _032_
*150 _033_
*151 _034_
*152 _035_
*153 _036_
*154 _037_
*155 _038_
*156 _039_
*157 _040_
*158 _041_
*159 _042_
*160 _043_
*161 _044_
*162 _045_
*163 _046_
*164 _047_
*165 _048_
*166 _049_
*167 _050_
*168 _051_
*169 _052_
*170 _053_
*171 _054_
*172 _055_
*173 _056_
*174 _057_
*175 _058_
*176 _059_
*177 _060_
*178 _061_
*179 _062_
*180 _063_
*181 _064_
*182 _065_
*183 _066_
*184 _067_
*185 _068_
*186 _069_
*187 _070_
*188 _071_
*189 _072_
*190 _073_
*191 _074_
*192 _075_
*193 _076_
*194 _077_
*195 _078_
*196 _079_
*197 _080_
*198 _081_
*199 _082_
*200 _083_
*201 _084_
*202 _085_
*203 _086_
*204 _087_
*205 _088_
*206 _089_
*207 _090_
*208 _091_
*209 _092_
*210 _093_
*211 _094_
*212 _095_
*213 _096_
*214 _097_
*215 _098_
*216 _099_
*217 _100_
*218 _101_
*219 _102_
*220 _103_
*221 _104_
*222 _105_
*223 _106_
*224 _107_
*225 _108_
*226 _109_
*227 _110_
*228 _111_
*229 _112_
*230 _113_
*231 _114_
*232 _115_
*233 _116_
*234 _117_
*235 _118_
*236 _119_
*237 _120_
*238 _121_
*239 _122_
*240 _123_
*241 _124_
*242 _125_
*243 _126_
*244 _127_
*245 _128_
*246 _129_
*247 _130_
*248 _131_
*249 _132_
*250 _133_
*251 _134_
*252 _135_
*253 _136_
*254 _137_
*255 _138_
*256 _139_
*257 _140_
*258 _141_
*259 _142_
*260 _143_
*261 _144_
*262 _145_
*263 _146_
*264 _147_
*265 _148_
*266 _149_
*267 _150_
*268 _151_
*269 _152_
*270 _153_
*271 mod\.flipflop1\.d
*272 mod\.flipflop1\.q
*273 mod\.flipflop10\.d
*274 mod\.flipflop11\.d
*275 mod\.flipflop11\.q
*276 mod\.flipflop12\.d
*277 mod\.flipflop12\.q
*278 mod\.flipflop13\.q
*279 mod\.flipflop14\.q
*280 mod\.flipflop15\.d
*281 mod\.flipflop16\.d
*282 mod\.flipflop17\.d
*283 mod\.flipflop18\.d
*284 mod\.flipflop18\.q
*285 mod\.flipflop19\.q
*286 mod\.flipflop2\.d
*287 mod\.flipflop2\.q
*288 mod\.flipflop20\.q
*289 mod\.flipflop21\.d
*290 mod\.flipflop21\.q
*291 mod\.flipflop22\.q
*292 mod\.flipflop23\.q
*293 mod\.flipflop24\.q
*294 mod\.flipflop25\.q
*295 mod\.flipflop26\.q
*296 mod\.flipflop27\.d
*297 mod\.flipflop27\.q
*298 mod\.flipflop28\.q
*299 mod\.flipflop29\.d
*300 mod\.flipflop29\.q
*301 mod\.flipflop3\.q
*302 mod\.flipflop30\.q
*303 mod\.flipflop31\.q
*304 mod\.flipflop32\.d
*305 mod\.flipflop32\.q
*306 mod\.flipflop33\.d
*307 mod\.flipflop33\.q
*308 mod\.flipflop34\.d
*309 mod\.flipflop34\.q
*310 mod\.flipflop35\.q
*311 mod\.flipflop36\.q
*312 mod\.flipflop37\.d
*313 mod\.flipflop37\.q
*314 mod\.flipflop38\.q
*315 mod\.flipflop39\.q
*316 mod\.flipflop4\.q
*317 mod\.flipflop40\.q
*318 mod\.flipflop41\.d
*319 mod\.flipflop41\.q
*320 mod\.flipflop42\.q
*321 mod\.flipflop43\.q
*322 mod\.flipflop44\.q
*323 mod\.flipflop45\.q
*324 mod\.flipflop5\.q
*325 mod\.flipflop6\.q
*326 mod\.flipflop8\.d
*327 mod\.flipflop8\.q
*328 mod\.flipflop9\.d
*329 net1
*330 net10
*331 net11
*332 net12
*333 net13
*334 net14
*335 net15
*336 net2
*337 net3
*338 net4
*339 net5
*340 net6
*341 net7
*342 net8
*343 net9
*344 ANTENNA__154__I
*345 ANTENNA__155__I
*346 ANTENNA__156__A1
*347 ANTENNA__156__A2
*348 ANTENNA__157__A1
*349 ANTENNA__157__A2
*350 ANTENNA__159__I
*351 ANTENNA__160__A1
*352 ANTENNA__160__A2
*353 ANTENNA__160__A3
*354 ANTENNA__160__A4
*355 ANTENNA__161__A1
*356 ANTENNA__161__A2
*357 ANTENNA__161__A3
*358 ANTENNA__161__A4
*359 ANTENNA__162__A1
*360 ANTENNA__162__A3
*361 ANTENNA__163__A1
*362 ANTENNA__163__A2
*363 ANTENNA__163__A3
*364 ANTENNA__163__A4
*365 ANTENNA__164__A1
*366 ANTENNA__164__A2
*367 ANTENNA__165__A1
*368 ANTENNA__165__A2
*369 ANTENNA__165__A3
*370 ANTENNA__165__A4
*371 ANTENNA__166__A1
*372 ANTENNA__166__A2
*373 ANTENNA__166__A3
*374 ANTENNA__166__A4
*375 ANTENNA__167__I
*376 ANTENNA__168__A1
*377 ANTENNA__168__A2
*378 ANTENNA__168__A3
*379 ANTENNA__168__A4
*380 ANTENNA__169__A1
*381 ANTENNA__169__A2
*382 ANTENNA__169__A3
*383 ANTENNA__169__A4
*384 ANTENNA__170__A1
*385 ANTENNA__171__A1
*386 ANTENNA__171__A4
*387 ANTENNA__172__I
*388 ANTENNA__173__I
*389 ANTENNA__174__A1
*390 ANTENNA__174__A2
*391 ANTENNA__175__I
*392 ANTENNA__176__A1
*393 ANTENNA__176__A2
*394 ANTENNA__177__I
*395 ANTENNA__178__A1
*396 ANTENNA__178__A2
*397 ANTENNA__179__I
*398 ANTENNA__180__A1
*399 ANTENNA__180__A2
*400 ANTENNA__181__I
*401 ANTENNA__182__I
*402 ANTENNA__183__A1
*403 ANTENNA__183__A2
*404 ANTENNA__185__A1
*405 ANTENNA__185__A2
*406 ANTENNA__186__I
*407 ANTENNA__187__A1
*408 ANTENNA__187__A2
*409 ANTENNA__189__A1
*410 ANTENNA__189__A2
*411 ANTENNA__190__I
*412 ANTENNA__191__A1
*413 ANTENNA__191__A2
*414 ANTENNA__192__I
*415 ANTENNA__193__A1
*416 ANTENNA__193__A2
*417 ANTENNA__194__I
*418 ANTENNA__195__A1
*419 ANTENNA__195__A2
*420 ANTENNA__196__I
*421 ANTENNA__197__A1
*422 ANTENNA__197__A2
*423 ANTENNA__198__A1
*424 ANTENNA__198__A2
*425 ANTENNA__198__A4
*426 ANTENNA__199__A1
*427 ANTENNA__199__A2
*428 ANTENNA__200__A1
*429 ANTENNA__200__A2
*430 ANTENNA__200__A3
*431 ANTENNA__201__A1
*432 ANTENNA__202__I
*433 ANTENNA__203__I0
*434 ANTENNA__203__I1
*435 ANTENNA__203__I2
*436 ANTENNA__203__I3
*437 ANTENNA__203__S0
*438 ANTENNA__203__S1
*439 ANTENNA__204__I
*440 ANTENNA__205__I0
*441 ANTENNA__205__I1
*442 ANTENNA__205__I2
*443 ANTENNA__205__I3
*444 ANTENNA__205__S0
*445 ANTENNA__205__S1
*446 ANTENNA__206__I0
*447 ANTENNA__206__I1
*448 ANTENNA__206__I2
*449 ANTENNA__206__I3
*450 ANTENNA__206__S0
*451 ANTENNA__206__S1
*452 ANTENNA__207__A1
*453 ANTENNA__207__A2
*454 ANTENNA__209__I
*455 ANTENNA__210__I
*456 ANTENNA__211__A1
*457 ANTENNA__211__A2
*458 ANTENNA__212__A1
*459 ANTENNA__212__A2
*460 ANTENNA__212__A3
*461 ANTENNA__214__I
*462 ANTENNA__215__I
*463 ANTENNA__216__A1
*464 ANTENNA__216__A2
*465 ANTENNA__217__A1
*466 ANTENNA__217__A2
*467 ANTENNA__218__I
*468 ANTENNA__219__A1
*469 ANTENNA__219__A2
*470 ANTENNA__220__I
*471 ANTENNA__221__A1
*472 ANTENNA__221__A2
*473 ANTENNA__222__A1
*474 ANTENNA__222__A2
*475 ANTENNA__223__A1
*476 ANTENNA__223__A2
*477 ANTENNA__224__I
*478 ANTENNA__225__A1
*479 ANTENNA__225__A2
*480 ANTENNA__226__A1
*481 ANTENNA__226__A2
*482 ANTENNA__226__A3
*483 ANTENNA__226__B1
*484 ANTENNA__226__B2
*485 ANTENNA__227__A1
*486 ANTENNA__227__A2
*487 ANTENNA__227__B
*488 ANTENNA__228__A1
*489 ANTENNA__228__A2
*490 ANTENNA__229__A1
*491 ANTENNA__229__A2
*492 ANTENNA__230__I
*493 ANTENNA__231__I
*494 ANTENNA__232__A1
*495 ANTENNA__232__A2
*496 ANTENNA__233__A1
*497 ANTENNA__233__A2
*498 ANTENNA__234__I0
*499 ANTENNA__234__I1
*500 ANTENNA__234__S
*501 ANTENNA__235__A1
*502 ANTENNA__235__A2
*503 ANTENNA__235__A3
*504 ANTENNA__236__A1
*505 ANTENNA__236__A2
*506 ANTENNA__237__A1
*507 ANTENNA__237__A2
*508 ANTENNA__237__A3
*509 ANTENNA__238__A1
*510 ANTENNA__238__A2
*511 ANTENNA__238__B
*512 ANTENNA__239__A2
*513 ANTENNA__239__A3
*514 ANTENNA__239__B2
*515 ANTENNA__241__A1
*516 ANTENNA__241__A2
*517 ANTENNA__242__I
*518 ANTENNA__243__A1
*519 ANTENNA__243__A2
*520 ANTENNA__243__B
*521 ANTENNA__244__A1
*522 ANTENNA__244__A2
*523 ANTENNA__245__I
*524 ANTENNA__246__A1
*525 ANTENNA__246__A2
*526 ANTENNA__247__A1
*527 ANTENNA__247__A2
*528 ANTENNA__247__A3
*529 ANTENNA__248__A1
*530 ANTENNA__248__A2
*531 ANTENNA__249__I
*532 ANTENNA__250__I
*533 ANTENNA__251__I
*534 ANTENNA__252__A1
*535 ANTENNA__252__A2
*536 ANTENNA__253__A1
*537 ANTENNA__253__A2
*538 ANTENNA__254__A1
*539 ANTENNA__254__A2
*540 ANTENNA__255__A1
*541 ANTENNA__255__A2
*542 ANTENNA__255__A3
*543 ANTENNA__256__I
*544 ANTENNA__257__A1
*545 ANTENNA__257__A2
*546 ANTENNA__258__A1
*547 ANTENNA__258__A2
*548 ANTENNA__258__A3
*549 ANTENNA__259__I
*550 ANTENNA__260__A1
*551 ANTENNA__260__A2
*552 ANTENNA__260__A3
*553 ANTENNA__260__B
*554 ANTENNA__261__A1
*555 ANTENNA__261__A2
*556 ANTENNA__261__A3
*557 ANTENNA__262__A1
*558 ANTENNA__262__A2
*559 ANTENNA__262__B
*560 ANTENNA__263__A1
*561 ANTENNA__263__A2
*562 ANTENNA__263__A3
*563 ANTENNA__264__A1
*564 ANTENNA__264__A2
*565 ANTENNA__265__A1
*566 ANTENNA__265__A2
*567 ANTENNA__265__B
*568 ANTENNA__266__I
*569 ANTENNA__267__A1
*570 ANTENNA__267__A3
*571 ANTENNA__268__A1
*572 ANTENNA__268__A2
*573 ANTENNA__269__A1
*574 ANTENNA__269__A2
*575 ANTENNA__270__A2
*576 ANTENNA__270__B2
*577 ANTENNA__271__A1
*578 ANTENNA__271__A2
*579 ANTENNA__271__B
*580 ANTENNA__272__A1
*581 ANTENNA__272__A2
*582 ANTENNA__274__A1
*583 ANTENNA__274__A2
*584 ANTENNA__275__A1
*585 ANTENNA__275__A2
*586 ANTENNA__275__B1
*587 ANTENNA__275__B2
*588 ANTENNA__276__A1
*589 ANTENNA__276__A2
*590 ANTENNA__276__B1
*591 ANTENNA__276__B2
*592 ANTENNA__276__C
*593 ANTENNA__277__A1
*594 ANTENNA__277__A2
*595 ANTENNA__278__A1
*596 ANTENNA__278__A2
*597 ANTENNA__279__A1
*598 ANTENNA__279__A2
*599 ANTENNA__279__B
*600 ANTENNA__280__A1
*601 ANTENNA__280__A2
*602 ANTENNA__281__A1
*603 ANTENNA__281__A2
*604 ANTENNA__281__A3
*605 ANTENNA__281__B
*606 ANTENNA__282__A1
*607 ANTENNA__282__A2
*608 ANTENNA__282__B
*609 ANTENNA__283__A1
*610 ANTENNA__283__A2
*611 ANTENNA__284__A1
*612 ANTENNA__284__A2
*613 ANTENNA__284__B1
*614 ANTENNA__284__B2
*615 ANTENNA__284__C
*616 ANTENNA__285__A1
*617 ANTENNA__285__A2
*618 ANTENNA__286__A1
*619 ANTENNA__286__A2
*620 ANTENNA__286__B
*621 ANTENNA__287__A1
*622 ANTENNA__287__A2
*623 ANTENNA__287__B
*624 ANTENNA__289__I0
*625 ANTENNA__289__I1
*626 ANTENNA__289__S
*627 ANTENNA__290__A1
*628 ANTENNA__290__A2
*629 ANTENNA__290__A3
*630 ANTENNA__291__A2
*631 ANTENNA__292__I
*632 ANTENNA__293__A1
*633 ANTENNA__293__A2
*634 ANTENNA__294__A1
*635 ANTENNA__294__A2
*636 ANTENNA__295__A1
*637 ANTENNA__295__A2
*638 ANTENNA__295__C
*639 ANTENNA__296__A1
*640 ANTENNA__296__A2
*641 ANTENNA__296__B
*642 ANTENNA__297__A1
*643 ANTENNA__297__A2
*644 ANTENNA__297__B
*645 ANTENNA__298__A1
*646 ANTENNA__298__A2
*647 ANTENNA__298__B1
*648 ANTENNA__298__B2
*649 ANTENNA__298__C1
*650 ANTENNA__298__C2
*651 ANTENNA__299__A1
*652 ANTENNA__299__A2
*653 ANTENNA__300__A1
*654 ANTENNA__300__B1
*655 ANTENNA__300__B2
*656 ANTENNA__300__C
*657 ANTENNA__301__A1
*658 ANTENNA__301__A2
*659 ANTENNA__301__A3
*660 ANTENNA__301__A4
*661 ANTENNA__302__A1
*662 ANTENNA__302__A2
*663 ANTENNA__302__A3
*664 ANTENNA__302__A4
*665 ANTENNA__303__A1
*666 ANTENNA__303__A2
*667 ANTENNA__304__A1
*668 ANTENNA__304__A2
*669 ANTENNA__304__A3
*670 ANTENNA__304__A4
*671 ANTENNA__305__A1
*672 ANTENNA__305__A2
*673 ANTENNA__305__B
*674 ANTENNA__306__A1
*675 ANTENNA__306__A2
*676 ANTENNA__306__B1
*677 ANTENNA__306__B2
*678 ANTENNA__306__C
*679 ANTENNA__308__A1
*680 ANTENNA__308__A2
*681 ANTENNA__308__B
*682 ANTENNA__309__A1
*683 ANTENNA__309__A2
*684 ANTENNA__309__B
*685 ANTENNA__310__A1
*686 ANTENNA__310__B1
*687 ANTENNA__311__A1
*688 ANTENNA__311__A2
*689 ANTENNA__311__B
*690 ANTENNA__311__C
*691 ANTENNA__312__A1
*692 ANTENNA__312__A2
*693 ANTENNA__313__I
*694 ANTENNA__314__I
*695 ANTENNA__315__A1
*696 ANTENNA__315__A2
*697 ANTENNA__315__B
*698 ANTENNA__315__C
*699 ANTENNA__316__A1
*700 ANTENNA__316__A2
*701 ANTENNA__318__I
*702 ANTENNA__319__A1
*703 ANTENNA__319__A2
*704 ANTENNA__319__B
*705 ANTENNA__319__C
*706 ANTENNA__320__A1
*707 ANTENNA__320__A2
*708 ANTENNA__321__I
*709 ANTENNA__322__A1
*710 ANTENNA__322__A2
*711 ANTENNA__322__B
*712 ANTENNA__322__C
*713 ANTENNA__323__A1
*714 ANTENNA__324__I
*715 ANTENNA__325__CLK
*716 ANTENNA__325__D
*717 ANTENNA__326__CLK
*718 ANTENNA__326__D
*719 ANTENNA__327__CLK
*720 ANTENNA__327__D
*721 ANTENNA__328__CLK
*722 ANTENNA__328__D
*723 ANTENNA__329__CLK
*724 ANTENNA__329__D
*725 ANTENNA__330__CLK
*726 ANTENNA__330__D
*727 ANTENNA__331__CLK
*728 ANTENNA__331__D
*729 ANTENNA__332__CLK
*730 ANTENNA__333__CLK
*731 ANTENNA__333__D
*732 ANTENNA__334__CLK
*733 ANTENNA__335__CLK
*734 ANTENNA__335__D
*735 ANTENNA__336__CLK
*736 ANTENNA__336__D
*737 ANTENNA__337__CLK
*738 ANTENNA__337__D
*739 ANTENNA__338__CLK
*740 ANTENNA__338__D
*741 ANTENNA__339__CLK
*742 ANTENNA__339__D
*743 ANTENNA__340__CLK
*744 ANTENNA__340__D
*745 ANTENNA__341__CLK
*746 ANTENNA__341__D
*747 ANTENNA__342__CLK
*748 ANTENNA__342__D
*749 ANTENNA__343__CLK
*750 ANTENNA__343__D
*751 ANTENNA__344__CLK
*752 ANTENNA__345__CLK
*753 ANTENNA__345__D
*754 ANTENNA__346__CLK
*755 ANTENNA__346__D
*756 ANTENNA__347__CLK
*757 ANTENNA__347__D
*758 ANTENNA__348__CLK
*759 ANTENNA__348__D
*760 ANTENNA__349__CLK
*761 ANTENNA__349__D
*762 ANTENNA__350__CLK
*763 ANTENNA__350__D
*764 ANTENNA__351__CLK
*765 ANTENNA__352__CLK
*766 ANTENNA__352__D
*767 ANTENNA__353__CLK
*768 ANTENNA__353__D
*769 ANTENNA__354__CLK
*770 ANTENNA__354__D
*771 ANTENNA__355__CLK
*772 ANTENNA__355__D
*773 ANTENNA__356__CLK
*774 ANTENNA__356__D
*775 ANTENNA__357__CLK
*776 ANTENNA__357__D
*777 ANTENNA__358__CLK
*778 ANTENNA__358__D
*779 ANTENNA__359__CLK
*780 ANTENNA__360__CLK
*781 ANTENNA__360__D
*782 ANTENNA__361__CLK
*783 ANTENNA__361__D
*784 ANTENNA__362__CLK
*785 ANTENNA__362__D
*786 ANTENNA__363__CLK
*787 ANTENNA__363__D
*788 ANTENNA__364__CLK
*789 ANTENNA__364__D
*790 ANTENNA__365__CLK
*791 ANTENNA__365__D
*792 ANTENNA__366__CLK
*793 ANTENNA__366__D
*794 ANTENNA__367__CLK
*795 ANTENNA__367__D
*796 ANTENNA__368__CLK
*797 ANTENNA__368__D
*798 ANTENNA__369__CLK
*799 ANTENNA__369__D
*800 ANTENNA__370__CLK
*801 ANTENNA__370__D
*802 ANTENNA__440__I
*803 ANTENNA__441__I
*804 ANTENNA_input1_I
*805 ANTENNA_input2_I
*806 ANTENNA_input3_I
*807 ANTENNA_input4_I
*808 ANTENNA_input5_I
*809 ANTENNA_input6_I
*810 ANTENNA_input7_I
*811 ANTENNA_input8_I
*812 ANTENNA_output10_I
*813 ANTENNA_output11_I
*814 ANTENNA_output12_I
*815 ANTENNA_output13_I
*816 ANTENNA_output14_I
*817 ANTENNA_output15_I
*818 ANTENNA_output9_I
*819 FILLER_0_103
*820 FILLER_0_107
*821 FILLER_0_119
*822 FILLER_0_131
*823 FILLER_0_139
*824 FILLER_0_142
*825 FILLER_0_144
*826 FILLER_0_149
*827 FILLER_0_155
*828 FILLER_0_163
*829 FILLER_0_17
*830 FILLER_0_171
*831 FILLER_0_177
*832 FILLER_0_182
*833 FILLER_0_190
*834 FILLER_0_192
*835 FILLER_0_197
*836 FILLER_0_2
*837 FILLER_0_205
*838 FILLER_0_209
*839 FILLER_0_212
*840 FILLER_0_220
*841 FILLER_0_222
*842 FILLER_0_227
*843 FILLER_0_23
*844 FILLER_0_243
*845 FILLER_0_247
*846 FILLER_0_252
*847 FILLER_0_268
*848 FILLER_0_27
*849 FILLER_0_270
*850 FILLER_0_275
*851 FILLER_0_279
*852 FILLER_0_282
*853 FILLER_0_298
*854 FILLER_0_300
*855 FILLER_0_305
*856 FILLER_0_309
*857 FILLER_0_311
*858 FILLER_0_314
*859 FILLER_0_317
*860 FILLER_0_325
*861 FILLER_0_329
*862 FILLER_0_335
*863 FILLER_0_343
*864 FILLER_0_347
*865 FILLER_0_349
*866 FILLER_0_352
*867 FILLER_0_357
*868 FILLER_0_365
*869 FILLER_0_37
*870 FILLER_0_371
*871 FILLER_0_383
*872 FILLER_0_387
*873 FILLER_0_395
*874 FILLER_0_401
*875 FILLER_0_405
*876 FILLER_0_411
*877 FILLER_0_419
*878 FILLER_0_42
*879 FILLER_0_58
*880 FILLER_0_66
*881 FILLER_0_72
*882 FILLER_0_77
*883 FILLER_0_95
*884 FILLER_10_101
*885 FILLER_10_105
*886 FILLER_10_108
*887 FILLER_10_172
*888 FILLER_10_176
*889 FILLER_10_179
*890 FILLER_10_2
*891 FILLER_10_243
*892 FILLER_10_247
*893 FILLER_10_250
*894 FILLER_10_314
*895 FILLER_10_318
*896 FILLER_10_321
*897 FILLER_10_34
*898 FILLER_10_37
*899 FILLER_10_385
*900 FILLER_10_389
*901 FILLER_10_392
*902 FILLER_10_408
*903 FILLER_10_416
*904 FILLER_11_137
*905 FILLER_11_141
*906 FILLER_11_144
*907 FILLER_11_2
*908 FILLER_11_208
*909 FILLER_11_212
*910 FILLER_11_215
*911 FILLER_11_279
*912 FILLER_11_283
*913 FILLER_11_286
*914 FILLER_11_350
*915 FILLER_11_354
*916 FILLER_11_357
*917 FILLER_11_389
*918 FILLER_11_405
*919 FILLER_11_413
*920 FILLER_11_419
*921 FILLER_11_66
*922 FILLER_11_70
*923 FILLER_11_73
*924 FILLER_12_101
*925 FILLER_12_105
*926 FILLER_12_108
*927 FILLER_12_172
*928 FILLER_12_176
*929 FILLER_12_179
*930 FILLER_12_2
*931 FILLER_12_243
*932 FILLER_12_247
*933 FILLER_12_250
*934 FILLER_12_314
*935 FILLER_12_318
*936 FILLER_12_321
*937 FILLER_12_34
*938 FILLER_12_37
*939 FILLER_12_385
*940 FILLER_12_389
*941 FILLER_12_392
*942 FILLER_12_408
*943 FILLER_12_412
*944 FILLER_12_414
*945 FILLER_12_419
*946 FILLER_13_137
*947 FILLER_13_141
*948 FILLER_13_144
*949 FILLER_13_2
*950 FILLER_13_208
*951 FILLER_13_212
*952 FILLER_13_215
*953 FILLER_13_279
*954 FILLER_13_283
*955 FILLER_13_286
*956 FILLER_13_350
*957 FILLER_13_354
*958 FILLER_13_357
*959 FILLER_13_389
*960 FILLER_13_405
*961 FILLER_13_413
*962 FILLER_13_417
*963 FILLER_13_419
*964 FILLER_13_66
*965 FILLER_13_70
*966 FILLER_13_73
*967 FILLER_14_101
*968 FILLER_14_105
*969 FILLER_14_108
*970 FILLER_14_172
*971 FILLER_14_176
*972 FILLER_14_179
*973 FILLER_14_2
*974 FILLER_14_23
*975 FILLER_14_243
*976 FILLER_14_247
*977 FILLER_14_250
*978 FILLER_14_31
*979 FILLER_14_314
*980 FILLER_14_318
*981 FILLER_14_321
*982 FILLER_14_37
*983 FILLER_14_385
*984 FILLER_14_389
*985 FILLER_14_392
*986 FILLER_14_408
*987 FILLER_14_416
*988 FILLER_14_7
*989 FILLER_15_137
*990 FILLER_15_141
*991 FILLER_15_144
*992 FILLER_15_2
*993 FILLER_15_208
*994 FILLER_15_212
*995 FILLER_15_215
*996 FILLER_15_279
*997 FILLER_15_283
*998 FILLER_15_286
*999 FILLER_15_350
*1000 FILLER_15_354
*1001 FILLER_15_357
*1002 FILLER_15_389
*1003 FILLER_15_405
*1004 FILLER_15_413
*1005 FILLER_15_417
*1006 FILLER_15_419
*1007 FILLER_15_66
*1008 FILLER_15_70
*1009 FILLER_15_73
*1010 FILLER_16_101
*1011 FILLER_16_105
*1012 FILLER_16_108
*1013 FILLER_16_172
*1014 FILLER_16_176
*1015 FILLER_16_179
*1016 FILLER_16_2
*1017 FILLER_16_23
*1018 FILLER_16_243
*1019 FILLER_16_247
*1020 FILLER_16_250
*1021 FILLER_16_31
*1022 FILLER_16_314
*1023 FILLER_16_318
*1024 FILLER_16_321
*1025 FILLER_16_37
*1026 FILLER_16_385
*1027 FILLER_16_389
*1028 FILLER_16_392
*1029 FILLER_16_408
*1030 FILLER_16_416
*1031 FILLER_16_7
*1032 FILLER_17_137
*1033 FILLER_17_141
*1034 FILLER_17_144
*1035 FILLER_17_2
*1036 FILLER_17_208
*1037 FILLER_17_212
*1038 FILLER_17_215
*1039 FILLER_17_279
*1040 FILLER_17_283
*1041 FILLER_17_286
*1042 FILLER_17_350
*1043 FILLER_17_354
*1044 FILLER_17_357
*1045 FILLER_17_389
*1046 FILLER_17_405
*1047 FILLER_17_413
*1048 FILLER_17_417
*1049 FILLER_17_419
*1050 FILLER_17_66
*1051 FILLER_17_70
*1052 FILLER_17_73
*1053 FILLER_18_101
*1054 FILLER_18_105
*1055 FILLER_18_108
*1056 FILLER_18_172
*1057 FILLER_18_176
*1058 FILLER_18_179
*1059 FILLER_18_2
*1060 FILLER_18_23
*1061 FILLER_18_243
*1062 FILLER_18_247
*1063 FILLER_18_250
*1064 FILLER_18_31
*1065 FILLER_18_314
*1066 FILLER_18_318
*1067 FILLER_18_321
*1068 FILLER_18_37
*1069 FILLER_18_385
*1070 FILLER_18_389
*1071 FILLER_18_392
*1072 FILLER_18_408
*1073 FILLER_18_412
*1074 FILLER_18_414
*1075 FILLER_18_419
*1076 FILLER_18_7
*1077 FILLER_19_137
*1078 FILLER_19_141
*1079 FILLER_19_144
*1080 FILLER_19_2
*1081 FILLER_19_208
*1082 FILLER_19_212
*1083 FILLER_19_215
*1084 FILLER_19_279
*1085 FILLER_19_283
*1086 FILLER_19_286
*1087 FILLER_19_350
*1088 FILLER_19_354
*1089 FILLER_19_357
*1090 FILLER_19_389
*1091 FILLER_19_405
*1092 FILLER_19_413
*1093 FILLER_19_419
*1094 FILLER_19_66
*1095 FILLER_19_70
*1096 FILLER_19_73
*1097 FILLER_1_13
*1098 FILLER_1_137
*1099 FILLER_1_141
*1100 FILLER_1_144
*1101 FILLER_1_2
*1102 FILLER_1_208
*1103 FILLER_1_212
*1104 FILLER_1_215
*1105 FILLER_1_279
*1106 FILLER_1_283
*1107 FILLER_1_286
*1108 FILLER_1_350
*1109 FILLER_1_354
*1110 FILLER_1_357
*1111 FILLER_1_389
*1112 FILLER_1_405
*1113 FILLER_1_409
*1114 FILLER_1_413
*1115 FILLER_1_419
*1116 FILLER_1_45
*1117 FILLER_1_61
*1118 FILLER_1_69
*1119 FILLER_1_7
*1120 FILLER_1_73
*1121 FILLER_20_101
*1122 FILLER_20_105
*1123 FILLER_20_108
*1124 FILLER_20_172
*1125 FILLER_20_176
*1126 FILLER_20_179
*1127 FILLER_20_2
*1128 FILLER_20_23
*1129 FILLER_20_243
*1130 FILLER_20_247
*1131 FILLER_20_250
*1132 FILLER_20_31
*1133 FILLER_20_314
*1134 FILLER_20_318
*1135 FILLER_20_321
*1136 FILLER_20_37
*1137 FILLER_20_385
*1138 FILLER_20_389
*1139 FILLER_20_392
*1140 FILLER_20_408
*1141 FILLER_20_416
*1142 FILLER_20_7
*1143 FILLER_21_137
*1144 FILLER_21_141
*1145 FILLER_21_144
*1146 FILLER_21_2
*1147 FILLER_21_208
*1148 FILLER_21_212
*1149 FILLER_21_215
*1150 FILLER_21_279
*1151 FILLER_21_283
*1152 FILLER_21_286
*1153 FILLER_21_350
*1154 FILLER_21_354
*1155 FILLER_21_357
*1156 FILLER_21_389
*1157 FILLER_21_405
*1158 FILLER_21_413
*1159 FILLER_21_417
*1160 FILLER_21_419
*1161 FILLER_21_66
*1162 FILLER_21_70
*1163 FILLER_21_73
*1164 FILLER_22_101
*1165 FILLER_22_105
*1166 FILLER_22_108
*1167 FILLER_22_172
*1168 FILLER_22_176
*1169 FILLER_22_179
*1170 FILLER_22_2
*1171 FILLER_22_243
*1172 FILLER_22_247
*1173 FILLER_22_250
*1174 FILLER_22_314
*1175 FILLER_22_318
*1176 FILLER_22_321
*1177 FILLER_22_34
*1178 FILLER_22_37
*1179 FILLER_22_385
*1180 FILLER_22_389
*1181 FILLER_22_392
*1182 FILLER_22_408
*1183 FILLER_22_416
*1184 FILLER_23_137
*1185 FILLER_23_141
*1186 FILLER_23_144
*1187 FILLER_23_2
*1188 FILLER_23_208
*1189 FILLER_23_212
*1190 FILLER_23_215
*1191 FILLER_23_279
*1192 FILLER_23_283
*1193 FILLER_23_286
*1194 FILLER_23_350
*1195 FILLER_23_354
*1196 FILLER_23_357
*1197 FILLER_23_389
*1198 FILLER_23_405
*1199 FILLER_23_413
*1200 FILLER_23_417
*1201 FILLER_23_419
*1202 FILLER_23_7
*1203 FILLER_23_73
*1204 FILLER_24_101
*1205 FILLER_24_105
*1206 FILLER_24_108
*1207 FILLER_24_172
*1208 FILLER_24_176
*1209 FILLER_24_179
*1210 FILLER_24_2
*1211 FILLER_24_243
*1212 FILLER_24_247
*1213 FILLER_24_250
*1214 FILLER_24_314
*1215 FILLER_24_318
*1216 FILLER_24_321
*1217 FILLER_24_34
*1218 FILLER_24_37
*1219 FILLER_24_385
*1220 FILLER_24_389
*1221 FILLER_24_392
*1222 FILLER_24_408
*1223 FILLER_24_412
*1224 FILLER_24_414
*1225 FILLER_24_419
*1226 FILLER_25_137
*1227 FILLER_25_141
*1228 FILLER_25_144
*1229 FILLER_25_17
*1230 FILLER_25_2
*1231 FILLER_25_208
*1232 FILLER_25_21
*1233 FILLER_25_212
*1234 FILLER_25_215
*1235 FILLER_25_279
*1236 FILLER_25_283
*1237 FILLER_25_286
*1238 FILLER_25_350
*1239 FILLER_25_354
*1240 FILLER_25_357
*1241 FILLER_25_389
*1242 FILLER_25_405
*1243 FILLER_25_413
*1244 FILLER_25_417
*1245 FILLER_25_419
*1246 FILLER_25_53
*1247 FILLER_25_69
*1248 FILLER_25_73
*1249 FILLER_26_101
*1250 FILLER_26_105
*1251 FILLER_26_108
*1252 FILLER_26_172
*1253 FILLER_26_176
*1254 FILLER_26_179
*1255 FILLER_26_2
*1256 FILLER_26_243
*1257 FILLER_26_247
*1258 FILLER_26_250
*1259 FILLER_26_314
*1260 FILLER_26_318
*1261 FILLER_26_321
*1262 FILLER_26_34
*1263 FILLER_26_37
*1264 FILLER_26_385
*1265 FILLER_26_389
*1266 FILLER_26_392
*1267 FILLER_26_408
*1268 FILLER_26_412
*1269 FILLER_26_414
*1270 FILLER_26_419
*1271 FILLER_27_137
*1272 FILLER_27_141
*1273 FILLER_27_144
*1274 FILLER_27_2
*1275 FILLER_27_208
*1276 FILLER_27_212
*1277 FILLER_27_215
*1278 FILLER_27_279
*1279 FILLER_27_283
*1280 FILLER_27_286
*1281 FILLER_27_350
*1282 FILLER_27_354
*1283 FILLER_27_357
*1284 FILLER_27_389
*1285 FILLER_27_405
*1286 FILLER_27_413
*1287 FILLER_27_417
*1288 FILLER_27_419
*1289 FILLER_27_7
*1290 FILLER_27_73
*1291 FILLER_28_101
*1292 FILLER_28_105
*1293 FILLER_28_108
*1294 FILLER_28_172
*1295 FILLER_28_176
*1296 FILLER_28_179
*1297 FILLER_28_2
*1298 FILLER_28_243
*1299 FILLER_28_247
*1300 FILLER_28_250
*1301 FILLER_28_314
*1302 FILLER_28_318
*1303 FILLER_28_321
*1304 FILLER_28_34
*1305 FILLER_28_37
*1306 FILLER_28_385
*1307 FILLER_28_389
*1308 FILLER_28_392
*1309 FILLER_28_408
*1310 FILLER_28_416
*1311 FILLER_29_137
*1312 FILLER_29_141
*1313 FILLER_29_144
*1314 FILLER_29_2
*1315 FILLER_29_208
*1316 FILLER_29_212
*1317 FILLER_29_215
*1318 FILLER_29_279
*1319 FILLER_29_283
*1320 FILLER_29_286
*1321 FILLER_29_350
*1322 FILLER_29_354
*1323 FILLER_29_357
*1324 FILLER_29_389
*1325 FILLER_29_405
*1326 FILLER_29_413
*1327 FILLER_29_417
*1328 FILLER_29_419
*1329 FILLER_29_66
*1330 FILLER_29_70
*1331 FILLER_29_73
*1332 FILLER_2_101
*1333 FILLER_2_105
*1334 FILLER_2_108
*1335 FILLER_2_172
*1336 FILLER_2_176
*1337 FILLER_2_179
*1338 FILLER_2_2
*1339 FILLER_2_243
*1340 FILLER_2_247
*1341 FILLER_2_250
*1342 FILLER_2_314
*1343 FILLER_2_318
*1344 FILLER_2_321
*1345 FILLER_2_34
*1346 FILLER_2_37
*1347 FILLER_2_385
*1348 FILLER_2_389
*1349 FILLER_2_392
*1350 FILLER_2_408
*1351 FILLER_2_416
*1352 FILLER_30_101
*1353 FILLER_30_105
*1354 FILLER_30_108
*1355 FILLER_30_172
*1356 FILLER_30_176
*1357 FILLER_30_179
*1358 FILLER_30_2
*1359 FILLER_30_23
*1360 FILLER_30_243
*1361 FILLER_30_247
*1362 FILLER_30_250
*1363 FILLER_30_31
*1364 FILLER_30_314
*1365 FILLER_30_318
*1366 FILLER_30_321
*1367 FILLER_30_37
*1368 FILLER_30_385
*1369 FILLER_30_389
*1370 FILLER_30_392
*1371 FILLER_30_408
*1372 FILLER_30_412
*1373 FILLER_30_414
*1374 FILLER_30_419
*1375 FILLER_30_7
*1376 FILLER_31_137
*1377 FILLER_31_141
*1378 FILLER_31_144
*1379 FILLER_31_2
*1380 FILLER_31_208
*1381 FILLER_31_212
*1382 FILLER_31_215
*1383 FILLER_31_279
*1384 FILLER_31_283
*1385 FILLER_31_286
*1386 FILLER_31_350
*1387 FILLER_31_354
*1388 FILLER_31_357
*1389 FILLER_31_389
*1390 FILLER_31_405
*1391 FILLER_31_413
*1392 FILLER_31_417
*1393 FILLER_31_419
*1394 FILLER_31_66
*1395 FILLER_31_70
*1396 FILLER_31_73
*1397 FILLER_32_101
*1398 FILLER_32_105
*1399 FILLER_32_108
*1400 FILLER_32_172
*1401 FILLER_32_176
*1402 FILLER_32_179
*1403 FILLER_32_185
*1404 FILLER_32_187
*1405 FILLER_32_190
*1406 FILLER_32_194
*1407 FILLER_32_2
*1408 FILLER_32_226
*1409 FILLER_32_23
*1410 FILLER_32_242
*1411 FILLER_32_246
*1412 FILLER_32_250
*1413 FILLER_32_31
*1414 FILLER_32_314
*1415 FILLER_32_318
*1416 FILLER_32_321
*1417 FILLER_32_37
*1418 FILLER_32_385
*1419 FILLER_32_389
*1420 FILLER_32_392
*1421 FILLER_32_408
*1422 FILLER_32_416
*1423 FILLER_32_7
*1424 FILLER_33_137
*1425 FILLER_33_141
*1426 FILLER_33_144
*1427 FILLER_33_152
*1428 FILLER_33_156
*1429 FILLER_33_160
*1430 FILLER_33_166
*1431 FILLER_33_170
*1432 FILLER_33_174
*1433 FILLER_33_178
*1434 FILLER_33_182
*1435 FILLER_33_186
*1436 FILLER_33_190
*1437 FILLER_33_194
*1438 FILLER_33_198
*1439 FILLER_33_2
*1440 FILLER_33_202
*1441 FILLER_33_210
*1442 FILLER_33_212
*1443 FILLER_33_215
*1444 FILLER_33_279
*1445 FILLER_33_283
*1446 FILLER_33_286
*1447 FILLER_33_350
*1448 FILLER_33_354
*1449 FILLER_33_357
*1450 FILLER_33_389
*1451 FILLER_33_405
*1452 FILLER_33_413
*1453 FILLER_33_419
*1454 FILLER_33_66
*1455 FILLER_33_70
*1456 FILLER_33_73
*1457 FILLER_34_101
*1458 FILLER_34_105
*1459 FILLER_34_108
*1460 FILLER_34_124
*1461 FILLER_34_128
*1462 FILLER_34_130
*1463 FILLER_34_133
*1464 FILLER_34_143
*1465 FILLER_34_145
*1466 FILLER_34_148
*1467 FILLER_34_152
*1468 FILLER_34_156
*1469 FILLER_34_160
*1470 FILLER_34_164
*1471 FILLER_34_168
*1472 FILLER_34_176
*1473 FILLER_34_179
*1474 FILLER_34_186
*1475 FILLER_34_190
*1476 FILLER_34_194
*1477 FILLER_34_198
*1478 FILLER_34_2
*1479 FILLER_34_202
*1480 FILLER_34_206
*1481 FILLER_34_210
*1482 FILLER_34_214
*1483 FILLER_34_23
*1484 FILLER_34_246
*1485 FILLER_34_250
*1486 FILLER_34_31
*1487 FILLER_34_314
*1488 FILLER_34_318
*1489 FILLER_34_321
*1490 FILLER_34_37
*1491 FILLER_34_385
*1492 FILLER_34_389
*1493 FILLER_34_392
*1494 FILLER_34_408
*1495 FILLER_34_416
*1496 FILLER_34_7
*1497 FILLER_35_105
*1498 FILLER_35_113
*1499 FILLER_35_117
*1500 FILLER_35_121
*1501 FILLER_35_125
*1502 FILLER_35_129
*1503 FILLER_35_133
*1504 FILLER_35_137
*1505 FILLER_35_141
*1506 FILLER_35_144
*1507 FILLER_35_147
*1508 FILLER_35_151
*1509 FILLER_35_155
*1510 FILLER_35_159
*1511 FILLER_35_167
*1512 FILLER_35_177
*1513 FILLER_35_187
*1514 FILLER_35_195
*1515 FILLER_35_199
*1516 FILLER_35_2
*1517 FILLER_35_203
*1518 FILLER_35_207
*1519 FILLER_35_211
*1520 FILLER_35_215
*1521 FILLER_35_218
*1522 FILLER_35_222
*1523 FILLER_35_254
*1524 FILLER_35_270
*1525 FILLER_35_278
*1526 FILLER_35_282
*1527 FILLER_35_286
*1528 FILLER_35_350
*1529 FILLER_35_354
*1530 FILLER_35_357
*1531 FILLER_35_389
*1532 FILLER_35_405
*1533 FILLER_35_413
*1534 FILLER_35_417
*1535 FILLER_35_419
*1536 FILLER_35_66
*1537 FILLER_35_70
*1538 FILLER_35_73
*1539 FILLER_36_101
*1540 FILLER_36_105
*1541 FILLER_36_108
*1542 FILLER_36_112
*1543 FILLER_36_116
*1544 FILLER_36_120
*1545 FILLER_36_124
*1546 FILLER_36_128
*1547 FILLER_36_132
*1548 FILLER_36_136
*1549 FILLER_36_140
*1550 FILLER_36_144
*1551 FILLER_36_148
*1552 FILLER_36_156
*1553 FILLER_36_164
*1554 FILLER_36_176
*1555 FILLER_36_179
*1556 FILLER_36_188
*1557 FILLER_36_197
*1558 FILLER_36_2
*1559 FILLER_36_205
*1560 FILLER_36_209
*1561 FILLER_36_211
*1562 FILLER_36_214
*1563 FILLER_36_218
*1564 FILLER_36_222
*1565 FILLER_36_226
*1566 FILLER_36_230
*1567 FILLER_36_246
*1568 FILLER_36_250
*1569 FILLER_36_314
*1570 FILLER_36_318
*1571 FILLER_36_321
*1572 FILLER_36_34
*1573 FILLER_36_37
*1574 FILLER_36_385
*1575 FILLER_36_389
*1576 FILLER_36_392
*1577 FILLER_36_408
*1578 FILLER_36_412